/*---------------------------------------------------------------------------*\
| =========                 |                                                 |
| \\      /  F ield         | OpenFOAM: The Open Source CFD Toolbox           |
|  \\    /   O peration     | Version:  2406                                  |
|   \\  /    A nd           | Website:  www.openfoam.com                      |
|    \\/     M anipulation  |                                                 |
\*---------------------------------------------------------------------------*/
Build  : _be01ca78-20240625 OPENFOAM=2406 version=2406
Arch   : "LSB;label=32;scalar=64"
Exec   : simpleFoam
Date   : Nov 04 2024
Time   : 13:13:53
Host   : MatheusG15
PID    : 32494
I/O    : uncollated
Case   : /home/borges_openfoam/openFOAM/HagenPouiselle
nProcs : 1
trapFpe: Floating point exception trapping enabled (FOAM_SIGFPE).
fileModificationChecking : Monitoring run-time modified files using timeStampMaster (fileModificationSkew 5, maxFileModificationPolls 20)
allowSystemOperations : Allowing user-supplied system call operations

// * * * * * * * * * * * * * * * * * * * * * * * * * * * * * * * * * * * * * //
Create time

Create mesh for time = 0


SIMPLE: convergence criteria
    field p	 tolerance 1e-06
    field U	 tolerance 0.001

Reading field p

Reading field U

Reading/calculating face flux field phi

Selecting incompressible transport model Newtonian
Selecting turbulence model type laminar
Selecting laminar stress model Stokes
No MRF models present

No finite volume options present

Starting time loop

Time = 1

GAMG:  Solving for p, Initial residual = 1, Final residual = 7.5601478e-06, No Iterations 1
GAMG:  Solving for p, Initial residual = 0.00050387683, Final residual = 4.4571996e-09, No Iterations 10
time step continuity errors : sum local = 3.106466e-09, global = 3.4497123e-10, cumulative = 3.4497123e-10
ExecutionTime = 0.03 s  ClockTime = 0 s

Time = 2

GAMG:  Solving for p, Initial residual = 0.99762952, Final residual = 3.8134892e-06, No Iterations 9
GAMG:  Solving for p, Initial residual = 2.3748785e-06, Final residual = 4.2244642e-09, No Iterations 5
time step continuity errors : sum local = 2.9895056e-07, global = 4.3752348e-08, cumulative = 4.4097319e-08
ExecutionTime = 0.05 s  ClockTime = 0 s

Time = 3

GAMG:  Solving for p, Initial residual = 0.88751019, Final residual = 4.5236184e-06, No Iterations 9
GAMG:  Solving for p, Initial residual = 1.724275e-06, Final residual = 9.0013056e-09, No Iterations 4
time step continuity errors : sum local = 8.8446156e-07, global = -4.0585212e-07, cumulative = -3.617548e-07
ExecutionTime = 0.07 s  ClockTime = 0 s

Time = 4

GAMG:  Solving for p, Initial residual = 0.68314461, Final residual = 3.1776881e-06, No Iterations 9
GAMG:  Solving for p, Initial residual = 1.1190174e-06, Final residual = 5.4929806e-09, No Iterations 4
time step continuity errors : sum local = 4.7806626e-07, global = -2.0317516e-07, cumulative = -5.6492996e-07
ExecutionTime = 0.09 s  ClockTime = 0 s

Time = 5

GAMG:  Solving for p, Initial residual = 0.23528786, Final residual = 8.1330028e-07, No Iterations 7
GAMG:  Solving for p, Initial residual = 6.8421728e-07, Final residual = 7.4637356e-09, No Iterations 4
time step continuity errors : sum local = 3.9983743e-07, global = -5.1149676e-08, cumulative = -6.1607963e-07
ExecutionTime = 0.1 s  ClockTime = 0 s

Time = 6

GAMG:  Solving for p, Initial residual = 0.2064802, Final residual = 9.2142061e-07, No Iterations 10
GAMG:  Solving for p, Initial residual = 2.6293812e-06, Final residual = 4.1809486e-09, No Iterations 5
time step continuity errors : sum local = 6.6530024e-08, global = 2.2249566e-08, cumulative = -5.9383007e-07
ExecutionTime = 0.11 s  ClockTime = 0 s

Time = 7

GAMG:  Solving for p, Initial residual = 0.23232291, Final residual = 1.013212e-06, No Iterations 10
GAMG:  Solving for p, Initial residual = 2.1438003e-06, Final residual = 3.4522102e-09, No Iterations 5
time step continuity errors : sum local = 5.9388455e-08, global = 2.1110134e-08, cumulative = -5.7271993e-07
ExecutionTime = 0.12 s  ClockTime = 0 s

Time = 8

GAMG:  Solving for p, Initial residual = 0.29908991, Final residual = 1.1542693e-06, No Iterations 10
GAMG:  Solving for p, Initial residual = 8.1672451e-07, Final residual = 9.453323e-09, No Iterations 4
time step continuity errors : sum local = 3.1238268e-07, global = 2.6029426e-09, cumulative = -5.7011699e-07
ExecutionTime = 0.13 s  ClockTime = 0 s

Time = 9

GAMG:  Solving for p, Initial residual = 0.56972361, Final residual = 2.6463715e-06, No Iterations 10
GAMG:  Solving for p, Initial residual = 6.6962842e-07, Final residual = 1.2925377e-09, No Iterations 5
time step continuity errors : sum local = 4.5503747e-08, global = 1.4611427e-08, cumulative = -5.5550556e-07
ExecutionTime = 0.14 s  ClockTime = 0 s

Time = 10

GAMG:  Solving for p, Initial residual = 0.32567568, Final residual = 1.5309479e-06, No Iterations 10
GAMG:  Solving for p, Initial residual = 5.6074377e-07, Final residual = 5.2071129e-09, No Iterations 4
time step continuity errors : sum local = 1.3839584e-07, global = -8.3184981e-09, cumulative = -5.6382406e-07
ExecutionTime = 0.16 s  ClockTime = 0 s

Time = 11

GAMG:  Solving for p, Initial residual = 0.14264495, Final residual = 5.8535658e-07, No Iterations 9
GAMG:  Solving for p, Initial residual = 6.100244e-07, Final residual = 3.3243572e-09, No Iterations 4
time step continuity errors : sum local = 4.338999e-08, global = -1.8763205e-08, cumulative = -5.8258727e-07
ExecutionTime = 0.17 s  ClockTime = 0 s

Time = 12

GAMG:  Solving for p, Initial residual = 0.12928254, Final residual = 1.0518615e-06, No Iterations 9
GAMG:  Solving for p, Initial residual = 6.6233755e-06, Final residual = 7.5682634e-09, No Iterations 5
time step continuity errors : sum local = 1.5092741e-08, global = -8.7770846e-09, cumulative = -5.9136435e-07
ExecutionTime = 0.19 s  ClockTime = 0 s

Time = 13

GAMG:  Solving for p, Initial residual = 0.18074655, Final residual = 5.3698254e-07, No Iterations 10
GAMG:  Solving for p, Initial residual = 5.0979087e-07, Final residual = 3.0334545e-09, No Iterations 4
time step continuity errors : sum local = 2.8140717e-08, global = -1.2261741e-08, cumulative = -6.0362609e-07
ExecutionTime = 0.2 s  ClockTime = 0 s

Time = 14

GAMG:  Solving for p, Initial residual = 0.34614903, Final residual = 1.0702259e-06, No Iterations 10
GAMG:  Solving for p, Initial residual = 3.5339269e-07, Final residual = 2.8668719e-09, No Iterations 4
time step continuity errors : sum local = 3.5632894e-08, global = -8.8079482e-09, cumulative = -6.1243404e-07
ExecutionTime = 0.21 s  ClockTime = 0 s

Time = 15

GAMG:  Solving for p, Initial residual = 0.43373872, Final residual = 1.023887e-06, No Iterations 10
GAMG:  Solving for p, Initial residual = 2.1264121e-07, Final residual = 5.5527602e-09, No Iterations 3
time step continuity errors : sum local = 6.0761993e-08, global = 1.3574575e-08, cumulative = -5.9885947e-07
ExecutionTime = 0.22 s  ClockTime = 0 s

Time = 16

GAMG:  Solving for p, Initial residual = 0.11808575, Final residual = 1.0134973e-06, No Iterations 9
GAMG:  Solving for p, Initial residual = 6.8334102e-07, Final residual = 4.6705896e-09, No Iterations 4
time step continuity errors : sum local = 3.1478193e-08, global = -1.4378403e-08, cumulative = -6.1323787e-07
ExecutionTime = 0.24 s  ClockTime = 0 s

Time = 17

GAMG:  Solving for p, Initial residual = 0.065003761, Final residual = 4.1038948e-07, No Iterations 11
GAMG:  Solving for p, Initial residual = 1.0305005e-06, Final residual = 5.6611555e-09, No Iterations 4
time step continuity errors : sum local = 1.1209658e-08, global = 4.0007975e-09, cumulative = -6.0923707e-07
ExecutionTime = 0.25 s  ClockTime = 0 s

Time = 18

GAMG:  Solving for p, Initial residual = 0.098933075, Final residual = 2.9428318e-07, No Iterations 10
GAMG:  Solving for p, Initial residual = 5.2771725e-07, Final residual = 4.2112109e-09, No Iterations 4
time step continuity errors : sum local = 9.2566974e-09, global = 3.0550286e-09, cumulative = -6.0618204e-07
ExecutionTime = 0.26 s  ClockTime = 1 s

Time = 19

GAMG:  Solving for p, Initial residual = 0.17456776, Final residual = 7.8288876e-07, No Iterations 10
GAMG:  Solving for p, Initial residual = 4.4082129e-07, Final residual = 2.556483e-09, No Iterations 4
time step continuity errors : sum local = 1.0539449e-08, global = 4.3365844e-09, cumulative = -6.0184546e-07
ExecutionTime = 0.28 s  ClockTime = 1 s

Time = 20

GAMG:  Solving for p, Initial residual = 0.31088143, Final residual = 1.2448333e-06, No Iterations 10
GAMG:  Solving for p, Initial residual = 3.0254243e-07, Final residual = 1.877154e-09, No Iterations 4
time step continuity errors : sum local = 8.0790942e-09, global = 3.2696507e-09, cumulative = -5.9857581e-07
ExecutionTime = 0.3 s  ClockTime = 1 s

Time = 21

GAMG:  Solving for p, Initial residual = 0.16191882, Final residual = 4.4017705e-07, No Iterations 10
GAMG:  Solving for p, Initial residual = 1.7446562e-07, Final residual = 5.5528851e-09, No Iterations 3
time step continuity errors : sum local = 1.7684083e-08, global = -3.5397476e-09, cumulative = -6.0211556e-07
ExecutionTime = 0.33 s  ClockTime = 1 s

Time = 22

GAMG:  Solving for p, Initial residual = 0.062476598, Final residual = 3.4547774e-07, No Iterations 9
GAMG:  Solving for p, Initial residual = 3.9735969e-07, Final residual = 4.4333941e-09, No Iterations 4
time step continuity errors : sum local = 6.736721e-09, global = 7.7347789e-10, cumulative = -6.0134208e-07
ExecutionTime = 0.34 s  ClockTime = 1 s

Time = 23

GAMG:  Solving for p, Initial residual = 0.062032419, Final residual = 3.6680945e-07, No Iterations 10
GAMG:  Solving for p, Initial residual = 7.3430866e-07, Final residual = 4.3110275e-09, No Iterations 4
time step continuity errors : sum local = 3.4825164e-09, global = -1.2649561e-09, cumulative = -6.0260703e-07
ExecutionTime = 0.35 s  ClockTime = 1 s

Time = 24

GAMG:  Solving for p, Initial residual = 0.11965433, Final residual = 4.178324e-07, No Iterations 10
GAMG:  Solving for p, Initial residual = 4.050478e-07, Final residual = 3.5696418e-09, No Iterations 4
time step continuity errors : sum local = 4.1329036e-09, global = -1.1452387e-09, cumulative = -6.0375227e-07
ExecutionTime = 0.36 s  ClockTime = 1 s

Time = 25

GAMG:  Solving for p, Initial residual = 0.15154302, Final residual = 4.9272089e-07, No Iterations 10
GAMG:  Solving for p, Initial residual = 2.6480121e-07, Final residual = 8.1093123e-09, No Iterations 3
time step continuity errors : sum local = 1.2241113e-08, global = 2.2667626e-09, cumulative = -6.0148551e-07
ExecutionTime = 0.38 s  ClockTime = 1 s

Time = 26

GAMG:  Solving for p, Initial residual = 0.10803945, Final residual = 4.429043e-07, No Iterations 10
GAMG:  Solving for p, Initial residual = 2.6776967e-07, Final residual = 8.6159187e-09, No Iterations 3
time step continuity errors : sum local = 1.1218838e-08, global = 1.2893914e-09, cumulative = -6.0019612e-07
ExecutionTime = 0.39 s  ClockTime = 1 s

Time = 27

GAMG:  Solving for p, Initial residual = 0.058273298, Final residual = 2.4086707e-07, No Iterations 10
GAMG:  Solving for p, Initial residual = 2.3262208e-07, Final residual = 4.9076878e-09, No Iterations 3
time step continuity errors : sum local = 3.8981375e-09, global = -6.2681466e-10, cumulative = -6.0082293e-07
ExecutionTime = 0.4 s  ClockTime = 1 s

Time = 28

GAMG:  Solving for p, Initial residual = 0.036236367, Final residual = 1.7660299e-07, No Iterations 10
GAMG:  Solving for p, Initial residual = 1.7816762e-07, Final residual = 5.8067976e-09, No Iterations 3
time step continuity errors : sum local = 4.3086106e-09, global = 9.7365746e-11, cumulative = -6.0072557e-07
ExecutionTime = 0.41 s  ClockTime = 1 s

Time = 29

GAMG:  Solving for p, Initial residual = 0.055433525, Final residual = 3.0771706e-07, No Iterations 10
GAMG:  Solving for p, Initial residual = 3.1435555e-07, Final residual = 2.2384395e-09, No Iterations 4
time step continuity errors : sum local = 1.6038841e-09, global = 4.6510947e-10, cumulative = -6.0026046e-07
ExecutionTime = 0.42 s  ClockTime = 1 s

Time = 30

GAMG:  Solving for p, Initial residual = 0.060004536, Final residual = 2.2963996e-07, No Iterations 10
GAMG:  Solving for p, Initial residual = 2.2860254e-07, Final residual = 7.4317464e-09, No Iterations 3
time step continuity errors : sum local = 5.4610547e-09, global = -8.0358226e-10, cumulative = -6.0106404e-07
ExecutionTime = 0.43 s  ClockTime = 1 s

Time = 31

GAMG:  Solving for p, Initial residual = 0.047571325, Final residual = 1.4360534e-07, No Iterations 10
GAMG:  Solving for p, Initial residual = 1.4060421e-07, Final residual = 9.9924683e-09, No Iterations 2
time step continuity errors : sum local = 7.3998564e-09, global = 3.1525001e-09, cumulative = -5.9791154e-07
ExecutionTime = 0.44 s  ClockTime = 1 s

Time = 32

GAMG:  Solving for p, Initial residual = 0.029129789, Final residual = 8.113767e-08, No Iterations 10
GAMG:  Solving for p, Initial residual = 7.9600955e-08, Final residual = 8.1574659e-09, No Iterations 2
time step continuity errors : sum local = 5.9653227e-09, global = 1.4391139e-09, cumulative = -5.9647243e-07
ExecutionTime = 0.46 s  ClockTime = 1 s

Time = 33

GAMG:  Solving for p, Initial residual = 0.015030804, Final residual = 1.0350349e-07, No Iterations 9
GAMG:  Solving for p, Initial residual = 1.029908e-07, Final residual = 8.0965759e-09, No Iterations 2
time step continuity errors : sum local = 5.7956345e-09, global = -4.1796501e-10, cumulative = -5.9689039e-07
ExecutionTime = 0.47 s  ClockTime = 1 s

Time = 34

GAMG:  Solving for p, Initial residual = 0.016244833, Final residual = 7.6796269e-08, No Iterations 10
GAMG:  Solving for p, Initial residual = 7.7062066e-08, Final residual = 7.1624843e-09, No Iterations 2
time step continuity errors : sum local = 5.0471772e-09, global = -1.5545717e-09, cumulative = -5.9844496e-07
ExecutionTime = 0.48 s  ClockTime = 1 s

Time = 35

GAMG:  Solving for p, Initial residual = 0.020905558, Final residual = 1.0385949e-07, No Iterations 10
GAMG:  Solving for p, Initial residual = 1.0386429e-07, Final residual = 9.0358905e-09, No Iterations 2
time step continuity errors : sum local = 6.3755854e-09, global = -2.6982085e-09, cumulative = -6.0114317e-07
ExecutionTime = 0.5 s  ClockTime = 1 s

Time = 36

GAMG:  Solving for p, Initial residual = 0.018946488, Final residual = 7.687307e-08, No Iterations 10
GAMG:  Solving for p, Initial residual = 7.6371262e-08, Final residual = 6.1156322e-09, No Iterations 2
time step continuity errors : sum local = 4.3419811e-09, global = -1.775971e-09, cumulative = -6.0291914e-07
ExecutionTime = 0.51 s  ClockTime = 1 s

Time = 37

GAMG:  Solving for p, Initial residual = 0.013309463, Final residual = 4.0140934e-08, No Iterations 10
GAMG:  Solving for p, Initial residual = 3.9845611e-08, Final residual = 3.1691969e-09, No Iterations 2
time step continuity errors : sum local = 2.2448279e-09, global = -8.1958068e-10, cumulative = -6.0373872e-07
ExecutionTime = 0.53 s  ClockTime = 1 s

Time = 38

GAMG:  Solving for p, Initial residual = 0.0079265304, Final residual = 6.5307001e-08, No Iterations 9
GAMG:  Solving for p, Initial residual = 6.5124507e-08, Final residual = 5.5216997e-09, No Iterations 2
time step continuity errors : sum local = 3.8817128e-09, global = -7.0317461e-10, cumulative = -6.044419e-07
ExecutionTime = 0.54 s  ClockTime = 1 s

Time = 39

GAMG:  Solving for p, Initial residual = 0.0059368289, Final residual = 1.8852524e-08, No Iterations 10
GAMG:  Solving for p, Initial residual = 1.8885326e-08, Final residual = 7.1770334e-09, No Iterations 1
time step continuity errors : sum local = 5.0069239e-09, global = 1.5407014e-09, cumulative = -6.029012e-07
ExecutionTime = 0.55 s  ClockTime = 1 s

Time = 40

GAMG:  Solving for p, Initial residual = 0.0079266512, Final residual = 2.1967945e-08, No Iterations 10
GAMG:  Solving for p, Initial residual = 2.201901e-08, Final residual = 8.0043021e-09, No Iterations 1
time step continuity errors : sum local = 5.5689497e-09, global = 6.3503207e-10, cumulative = -6.0226616e-07
ExecutionTime = 0.56 s  ClockTime = 1 s

Time = 41

GAMG:  Solving for p, Initial residual = 0.0081470134, Final residual = 2.8004148e-08, No Iterations 10
GAMG:  Solving for p, Initial residual = 2.7993953e-08, Final residual = 2.2443253e-09, No Iterations 2
time step continuity errors : sum local = 1.565156e-09, global = 6.8777094e-10, cumulative = -6.0157839e-07
ExecutionTime = 0.57 s  ClockTime = 1 s

Time = 42

GAMG:  Solving for p, Initial residual = 0.0064887967, Final residual = 1.8230288e-08, No Iterations 10
GAMG:  Solving for p, Initial residual = 1.8195296e-08, Final residual = 6.5431224e-09, No Iterations 1
time step continuity errors : sum local = 4.5661174e-09, global = 1.5355887e-10, cumulative = -6.0142483e-07
ExecutionTime = 0.59 s  ClockTime = 1 s

Time = 43

GAMG:  Solving for p, Initial residual = 0.0041757792, Final residual = 1.4830036e-08, No Iterations 10
GAMG:  Solving for p, Initial residual = 1.4809268e-08, Final residual = 5.7407188e-09, No Iterations 1
time step continuity errors : sum local = 4.0007918e-09, global = 5.0448568e-10, cumulative = -6.0092035e-07
ExecutionTime = 0.6 s  ClockTime = 1 s

Time = 44

GAMG:  Solving for p, Initial residual = 0.002542546, Final residual = 1.8440074e-08, No Iterations 9
GAMG:  Solving for p, Initial residual = 1.8438952e-08, Final residual = 3.5715902e-09, No Iterations 1
time step continuity errors : sum local = 2.484072e-09, global = -9.4811886e-10, cumulative = -6.0186847e-07
ExecutionTime = 0.61 s  ClockTime = 1 s

Time = 45

GAMG:  Solving for p, Initial residual = 0.0027337161, Final residual = 7.6975568e-09, No Iterations 10
GAMG:  Solving for p, Initial residual = 7.7016323e-09, Final residual = 7.7016323e-09, No Iterations 0
time step continuity errors : sum local = 5.3497237e-09, global = -1.1663084e-09, cumulative = -6.0303478e-07
ExecutionTime = 0.62 s  ClockTime = 1 s

Time = 46

GAMG:  Solving for p, Initial residual = 0.0031214913, Final residual = 1.3897264e-08, No Iterations 10
GAMG:  Solving for p, Initial residual = 1.3897205e-08, Final residual = 5.0469059e-09, No Iterations 1
time step continuity errors : sum local = 3.5072135e-09, global = 4.7775902e-10, cumulative = -6.0255702e-07
ExecutionTime = 0.63 s  ClockTime = 1 s

Time = 47

GAMG:  Solving for p, Initial residual = 0.0028441196, Final residual = 1.0759355e-08, No Iterations 10
GAMG:  Solving for p, Initial residual = 1.0753137e-08, Final residual = 3.5481384e-09, No Iterations 1
time step continuity errors : sum local = 2.4667299e-09, global = 3.3448736e-10, cumulative = -6.0222253e-07
ExecutionTime = 0.64 s  ClockTime = 1 s

Time = 48

GAMG:  Solving for p, Initial residual = 0.0022001328, Final residual = 4.7518977e-09, No Iterations 10
GAMG:  Solving for p, Initial residual = 4.7496487e-09, Final residual = 4.7496487e-09, No Iterations 0
time step continuity errors : sum local = 3.3005563e-09, global = -9.0105767e-10, cumulative = -6.0312359e-07
ExecutionTime = 0.65 s  ClockTime = 1 s

Time = 49

GAMG:  Solving for p, Initial residual = 0.0016371011, Final residual = 1.1712612e-08, No Iterations 9
GAMG:  Solving for p, Initial residual = 1.1713619e-08, Final residual = 4.4028584e-09, No Iterations 1
time step continuity errors : sum local = 3.0567547e-09, global = 6.3933896e-10, cumulative = -6.0248425e-07
ExecutionTime = 0.67 s  ClockTime = 1 s

Time = 50

GAMG:  Solving for p, Initial residual = 0.0014641799, Final residual = 9.0613324e-09, No Iterations 9
GAMG:  Solving for p, Initial residual = 9.0657886e-09, Final residual = 9.0657886e-09, No Iterations 0
time step continuity errors : sum local = 6.2889195e-09, global = 9.5307389e-10, cumulative = -6.0153117e-07
ExecutionTime = 0.68 s  ClockTime = 1 s

Time = 51

GAMG:  Solving for p, Initial residual = 0.0016328988, Final residual = 8.4547114e-09, No Iterations 10
GAMG:  Solving for p, Initial residual = 8.4585819e-09, Final residual = 8.4585819e-09, No Iterations 0
time step continuity errors : sum local = 5.866087e-09, global = -1.2051874e-09, cumulative = -6.0273636e-07
ExecutionTime = 0.69 s  ClockTime = 1 s

Time = 52

GAMG:  Solving for p, Initial residual = 0.0015901789, Final residual = 2.9140716e-09, No Iterations 11
GAMG:  Solving for p, Initial residual = 2.9145301e-09, Final residual = 2.9145301e-09, No Iterations 0
time step continuity errors : sum local = 2.0215129e-09, global = 5.9921951e-10, cumulative = -6.0213714e-07
ExecutionTime = 0.7 s  ClockTime = 1 s

Time = 53

GAMG:  Solving for p, Initial residual = 0.0013396725, Final residual = 8.218349e-09, No Iterations 9
GAMG:  Solving for p, Initial residual = 8.2183826e-09, Final residual = 8.2183826e-09, No Iterations 0
time step continuity errors : sum local = 5.6993461e-09, global = 2.8617738e-09, cumulative = -5.9927537e-07
ExecutionTime = 0.71 s  ClockTime = 1 s

Time = 54

GAMG:  Solving for p, Initial residual = 0.0010440269, Final residual = 4.1081107e-09, No Iterations 9
GAMG:  Solving for p, Initial residual = 4.1083798e-09, Final residual = 4.1083798e-09, No Iterations 0
time step continuity errors : sum local = 2.8481683e-09, global = 7.493636e-10, cumulative = -5.98526e-07
ExecutionTime = 0.73 s  ClockTime = 1 s

Time = 55

GAMG:  Solving for p, Initial residual = 0.00085800847, Final residual = 6.1539933e-09, No Iterations 10
GAMG:  Solving for p, Initial residual = 6.1551233e-09, Final residual = 6.1551233e-09, No Iterations 0
time step continuity errors : sum local = 4.2654828e-09, global = 7.8414151e-10, cumulative = -5.9774186e-07
ExecutionTime = 0.74 s  ClockTime = 1 s

Time = 56

GAMG:  Solving for p, Initial residual = 0.00086010424, Final residual = 6.911139e-09, No Iterations 10
GAMG:  Solving for p, Initial residual = 6.9125134e-09, Final residual = 6.9125134e-09, No Iterations 0
time step continuity errors : sum local = 4.7891346e-09, global = 4.4938263e-10, cumulative = -5.9729248e-07
ExecutionTime = 0.77 s  ClockTime = 1 s

Time = 57

GAMG:  Solving for p, Initial residual = 0.00086461824, Final residual = 5.248818e-09, No Iterations 10
GAMG:  Solving for p, Initial residual = 5.2494387e-09, Final residual = 5.2494387e-09, No Iterations 0
time step continuity errors : sum local = 3.6365247e-09, global = 3.9803773e-10, cumulative = -5.9689444e-07
ExecutionTime = 0.78 s  ClockTime = 1 s

Time = 58

GAMG:  Solving for p, Initial residual = 0.00080634277, Final residual = 6.716479e-09, No Iterations 10
GAMG:  Solving for p, Initial residual = 6.7169292e-09, Final residual = 6.7169292e-09, No Iterations 0
time step continuity errors : sum local = 4.6524711e-09, global = 3.6129498e-10, cumulative = -5.9653315e-07
ExecutionTime = 0.79 s  ClockTime = 1 s

Time = 59

GAMG:  Solving for p, Initial residual = 0.00071552887, Final residual = 3.2791366e-09, No Iterations 10
GAMG:  Solving for p, Initial residual = 3.2794573e-09, Final residual = 3.2794573e-09, No Iterations 0
time step continuity errors : sum local = 2.2709761e-09, global = -1.1346503e-10, cumulative = -5.9664661e-07
ExecutionTime = 0.8 s  ClockTime = 1 s

Time = 60

GAMG:  Solving for p, Initial residual = 0.00063696384, Final residual = 4.6062257e-09, No Iterations 9
GAMG:  Solving for p, Initial residual = 4.6069579e-09, Final residual = 4.6069579e-09, No Iterations 0
time step continuity errors : sum local = 3.1893577e-09, global = -1.205172e-09, cumulative = -5.9785178e-07
ExecutionTime = 0.81 s  ClockTime = 1 s

Time = 61

GAMG:  Solving for p, Initial residual = 0.00060839523, Final residual = 3.8638756e-09, No Iterations 8
GAMG:  Solving for p, Initial residual = 3.8646203e-09, Final residual = 3.8646203e-09, No Iterations 0
time step continuity errors : sum local = 2.6747666e-09, global = 6.7960272e-10, cumulative = -5.9717218e-07
ExecutionTime = 0.83 s  ClockTime = 1 s

Time = 62

GAMG:  Solving for p, Initial residual = 0.00060480324, Final residual = 4.9329467e-09, No Iterations 8
GAMG:  Solving for p, Initial residual = 4.9338059e-09, Final residual = 4.9338059e-09, No Iterations 0
time step continuity errors : sum local = 3.4141803e-09, global = 5.8597519e-10, cumulative = -5.9658621e-07
ExecutionTime = 0.84 s  ClockTime = 1 s

Time = 63

GAMG:  Solving for p, Initial residual = 0.00057468179, Final residual = 4.5164127e-09, No Iterations 8
GAMG:  Solving for p, Initial residual = 4.5170342e-09, Final residual = 4.5170342e-09, No Iterations 0
time step continuity errors : sum local = 3.125326e-09, global = 6.0884201e-10, cumulative = -5.9597736e-07
ExecutionTime = 0.85 s  ClockTime = 1 s

Time = 64

GAMG:  Solving for p, Initial residual = 0.00052551539, Final residual = 3.3533263e-09, No Iterations 8
GAMG:  Solving for p, Initial residual = 3.353723e-09, Final residual = 3.353723e-09, No Iterations 0
time step continuity errors : sum local = 2.3200571e-09, global = -9.0938639e-10, cumulative = -5.9688675e-07
ExecutionTime = 0.86 s  ClockTime = 1 s

Time = 65

GAMG:  Solving for p, Initial residual = 0.00047517317, Final residual = 5.407819e-09, No Iterations 8
GAMG:  Solving for p, Initial residual = 5.4084759e-09, Final residual = 5.4084759e-09, No Iterations 0
time step continuity errors : sum local = 3.740855e-09, global = -1.7464554e-09, cumulative = -5.9863321e-07
ExecutionTime = 0.88 s  ClockTime = 1 s

Time = 66

GAMG:  Solving for p, Initial residual = 0.00043860325, Final residual = 6.5587193e-09, No Iterations 8
GAMG:  Solving for p, Initial residual = 6.5595361e-09, Final residual = 6.5595361e-09, No Iterations 0
time step continuity errors : sum local = 4.5362477e-09, global = -2.599936e-10, cumulative = -5.988932e-07
ExecutionTime = 0.89 s  ClockTime = 1 s

Time = 67

GAMG:  Solving for p, Initial residual = 0.00042420331, Final residual = 2.3375244e-09, No Iterations 9
GAMG:  Solving for p, Initial residual = 2.3377935e-09, Final residual = 2.3377935e-09, No Iterations 0
time step continuity errors : sum local = 1.616455e-09, global = -1.0161542e-09, cumulative = -5.9990935e-07
ExecutionTime = 0.9 s  ClockTime = 1 s

Time = 68

GAMG:  Solving for p, Initial residual = 0.00040809906, Final residual = 2.4389575e-09, No Iterations 9
GAMG:  Solving for p, Initial residual = 2.4392073e-09, Final residual = 2.4392073e-09, No Iterations 0
time step continuity errors : sum local = 1.6863501e-09, global = -1.1341825e-09, cumulative = -6.0104354e-07
ExecutionTime = 0.92 s  ClockTime = 1 s

Time = 69

GAMG:  Solving for p, Initial residual = 0.00038582624, Final residual = 9.7930915e-09, No Iterations 8
GAMG:  Solving for p, Initial residual = 9.7940461e-09, Final residual = 9.7940461e-09, No Iterations 0
time step continuity errors : sum local = 6.7701506e-09, global = -2.4833115e-10, cumulative = -6.0129187e-07
ExecutionTime = 0.95 s  ClockTime = 1 s

Time = 70

GAMG:  Solving for p, Initial residual = 0.00036157327, Final residual = 7.2998209e-09, No Iterations 8
GAMG:  Solving for p, Initial residual = 7.3005482e-09, Final residual = 7.3005482e-09, No Iterations 0
time step continuity errors : sum local = 5.0457402e-09, global = -3.766297e-10, cumulative = -6.016685e-07
ExecutionTime = 0.96 s  ClockTime = 1 s

Time = 71

GAMG:  Solving for p, Initial residual = 0.00034060283, Final residual = 9.5827424e-09, No Iterations 8
GAMG:  Solving for p, Initial residual = 9.5837281e-09, Final residual = 9.5837281e-09, No Iterations 0
time step continuity errors : sum local = 6.622735e-09, global = 1.7433572e-09, cumulative = -5.9992514e-07
ExecutionTime = 0.97 s  ClockTime = 1 s

Time = 72

GAMG:  Solving for p, Initial residual = 0.00032658351, Final residual = 4.7953651e-09, No Iterations 8
GAMG:  Solving for p, Initial residual = 4.7958572e-09, Final residual = 4.7958572e-09, No Iterations 0
time step continuity errors : sum local = 3.3136177e-09, global = -4.8613877e-10, cumulative = -6.0041128e-07
ExecutionTime = 0.98 s  ClockTime = 1 s

Time = 73

GAMG:  Solving for p, Initial residual = 0.00031347955, Final residual = 7.9360486e-09, No Iterations 7
GAMG:  Solving for p, Initial residual = 7.9368179e-09, Final residual = 7.9368179e-09, No Iterations 0
time step continuity errors : sum local = 5.4830781e-09, global = -1.0113533e-09, cumulative = -6.0142263e-07
ExecutionTime = 0.99 s  ClockTime = 1 s

Time = 74

GAMG:  Solving for p, Initial residual = 0.00029824061, Final residual = 7.6566523e-09, No Iterations 7
GAMG:  Solving for p, Initial residual = 7.6573418e-09, Final residual = 7.6573418e-09, No Iterations 0
time step continuity errors : sum local = 5.289297e-09, global = -1.1968476e-09, cumulative = -6.0261948e-07
ExecutionTime = 1 s  ClockTime = 1 s

Time = 75

GAMG:  Solving for p, Initial residual = 0.00028136465, Final residual = 4.7843135e-09, No Iterations 8
GAMG:  Solving for p, Initial residual = 4.7847187e-09, Final residual = 4.7847187e-09, No Iterations 0
time step continuity errors : sum local = 3.3046106e-09, global = -5.109898e-10, cumulative = -6.0313047e-07
ExecutionTime = 1.01 s  ClockTime = 1 s

Time = 76

GAMG:  Solving for p, Initial residual = 0.00026501343, Final residual = 6.8829788e-09, No Iterations 8
GAMG:  Solving for p, Initial residual = 6.8835322e-09, Final residual = 6.8835322e-09, No Iterations 0
time step continuity errors : sum local = 4.7535161e-09, global = 8.9763996e-10, cumulative = -6.0223283e-07
ExecutionTime = 1.02 s  ClockTime = 1 s

Time = 77

GAMG:  Solving for p, Initial residual = 0.00025140755, Final residual = 5.1832662e-09, No Iterations 8
GAMG:  Solving for p, Initial residual = 5.1836613e-09, Final residual = 5.1836613e-09, No Iterations 0
time step continuity errors : sum local = 3.579185e-09, global = 7.968742e-10, cumulative = -6.0143596e-07
ExecutionTime = 1.03 s  ClockTime = 1 s

Time = 78

GAMG:  Solving for p, Initial residual = 0.0002403685, Final residual = 4.2390519e-09, No Iterations 8
GAMG:  Solving for p, Initial residual = 4.2393567e-09, Final residual = 4.2393567e-09, No Iterations 0
time step continuity errors : sum local = 2.9267916e-09, global = 4.9303474e-11, cumulative = -6.0138665e-07
ExecutionTime = 1.05 s  ClockTime = 1 s

Time = 79

GAMG:  Solving for p, Initial residual = 0.00022940372, Final residual = 4.1199623e-09, No Iterations 8
GAMG:  Solving for p, Initial residual = 4.1202443e-09, Final residual = 4.1202443e-09, No Iterations 0
time step continuity errors : sum local = 2.8441916e-09, global = -6.885769e-11, cumulative = -6.0145551e-07
ExecutionTime = 1.06 s  ClockTime = 1 s

Time = 80

GAMG:  Solving for p, Initial residual = 0.00021835764, Final residual = 3.9814352e-09, No Iterations 8
GAMG:  Solving for p, Initial residual = 3.9816975e-09, Final residual = 3.9816975e-09, No Iterations 0
time step continuity errors : sum local = 2.748221e-09, global = 7.0282926e-11, cumulative = -6.0138523e-07
ExecutionTime = 1.08 s  ClockTime = 1 s

Time = 81

GAMG:  Solving for p, Initial residual = 0.00020769282, Final residual = 4.184297e-09, No Iterations 8
GAMG:  Solving for p, Initial residual = 4.184564e-09, Final residual = 4.184564e-09, No Iterations 0
time step continuity errors : sum local = 2.8879015e-09, global = 4.7023012e-10, cumulative = -6.00915e-07
ExecutionTime = 1.09 s  ClockTime = 1 s

Time = 82

GAMG:  Solving for p, Initial residual = 0.0001980774, Final residual = 4.7411606e-09, No Iterations 8
GAMG:  Solving for p, Initial residual = 4.7414537e-09, Final residual = 4.7414537e-09, No Iterations 0
time step continuity errors : sum local = 3.2718144e-09, global = 8.6618835e-10, cumulative = -6.0004881e-07
ExecutionTime = 1.1 s  ClockTime = 1 s

Time = 83

GAMG:  Solving for p, Initial residual = 0.00018926476, Final residual = 5.0223485e-09, No Iterations 8
GAMG:  Solving for p, Initial residual = 5.0226482e-09, Final residual = 5.0226482e-09, No Iterations 0
time step continuity errors : sum local = 3.4654388e-09, global = 9.382243e-10, cumulative = -5.9911058e-07
ExecutionTime = 1.11 s  ClockTime = 1 s

Time = 84

GAMG:  Solving for p, Initial residual = 0.00018064623, Final residual = 4.8762712e-09, No Iterations 8
GAMG:  Solving for p, Initial residual = 4.8765491e-09, Final residual = 4.8765491e-09, No Iterations 0
time step continuity errors : sum local = 3.3642039e-09, global = 8.7629654e-10, cumulative = -5.9823429e-07
ExecutionTime = 1.12 s  ClockTime = 1 s

Time = 85

GAMG:  Solving for p, Initial residual = 0.00017213618, Final residual = 4.5442025e-09, No Iterations 8
GAMG:  Solving for p, Initial residual = 4.5444478e-09, Final residual = 4.5444478e-09, No Iterations 0
time step continuity errors : sum local = 3.1347465e-09, global = 8.4024705e-10, cumulative = -5.9739404e-07
ExecutionTime = 1.13 s  ClockTime = 1 s

Time = 86

GAMG:  Solving for p, Initial residual = 0.00016384343, Final residual = 4.0036807e-09, No Iterations 8
GAMG:  Solving for p, Initial residual = 4.0038836e-09, Final residual = 4.0038836e-09, No Iterations 0
time step continuity errors : sum local = 2.7615494e-09, global = 7.5245494e-10, cumulative = -5.9664159e-07
ExecutionTime = 1.14 s  ClockTime = 1 s

Time = 87

GAMG:  Solving for p, Initial residual = 0.00015596813, Final residual = 9.6172716e-09, No Iterations 7
GAMG:  Solving for p, Initial residual = 9.6177223e-09, Final residual = 9.6177223e-09, No Iterations 0
time step continuity errors : sum local = 6.632788e-09, global = -2.9663204e-09, cumulative = -5.9960791e-07
ExecutionTime = 1.15 s  ClockTime = 1 s

Time = 88

GAMG:  Solving for p, Initial residual = 0.00014864723, Final residual = 8.287489e-09, No Iterations 7
GAMG:  Solving for p, Initial residual = 8.2878475e-09, Final residual = 8.2878475e-09, No Iterations 0
time step continuity errors : sum local = 5.7150157e-09, global = -2.1895039e-09, cumulative = -6.0179741e-07
ExecutionTime = 1.16 s  ClockTime = 1 s

Time = 89

GAMG:  Solving for p, Initial residual = 0.00014184219, Final residual = 7.4307957e-09, No Iterations 7
GAMG:  Solving for p, Initial residual = 7.4310826e-09, Final residual = 7.4310826e-09, No Iterations 0
time step continuity errors : sum local = 5.1236638e-09, global = -1.7206892e-09, cumulative = -6.035181e-07
ExecutionTime = 1.17 s  ClockTime = 1 s

Time = 90

GAMG:  Solving for p, Initial residual = 0.000135354, Final residual = 6.9412304e-09, No Iterations 7
GAMG:  Solving for p, Initial residual = 6.9414722e-09, Final residual = 6.9414722e-09, No Iterations 0
time step continuity errors : sum local = 4.7855886e-09, global = -1.5130776e-09, cumulative = -6.0503118e-07
ExecutionTime = 1.18 s  ClockTime = 1 s

Time = 91

GAMG:  Solving for p, Initial residual = 0.00012915717, Final residual = 6.64491e-09, No Iterations 7
GAMG:  Solving for p, Initial residual = 6.6451215e-09, Final residual = 6.6451215e-09, No Iterations 0
time step continuity errors : sum local = 4.5808027e-09, global = -1.4541305e-09, cumulative = -6.0648531e-07
ExecutionTime = 1.19 s  ClockTime = 1 s

Time = 92

GAMG:  Solving for p, Initial residual = 0.00012330063, Final residual = 6.4405347e-09, No Iterations 7
GAMG:  Solving for p, Initial residual = 6.440726e-09, Final residual = 6.440726e-09, No Iterations 0
time step continuity errors : sum local = 4.4394596e-09, global = -1.4652221e-09, cumulative = -6.0795053e-07
ExecutionTime = 1.21 s  ClockTime = 1 s

Time = 93

GAMG:  Solving for p, Initial residual = 0.00011773976, Final residual = 6.246222e-09, No Iterations 7
GAMG:  Solving for p, Initial residual = 6.2464004e-09, Final residual = 6.2464004e-09, No Iterations 0
time step continuity errors : sum local = 4.3050777e-09, global = -1.4807479e-09, cumulative = -6.0943128e-07
ExecutionTime = 1.23 s  ClockTime = 1 s

Time = 94

GAMG:  Solving for p, Initial residual = 0.00011242462, Final residual = 5.995113e-09, No Iterations 7
GAMG:  Solving for p, Initial residual = 5.9952769e-09, Final residual = 5.9952769e-09, No Iterations 0
time step continuity errors : sum local = 4.1315695e-09, global = -1.4468805e-09, cumulative = -6.1087816e-07
ExecutionTime = 1.25 s  ClockTime = 1 s

Time = 95

GAMG:  Solving for p, Initial residual = 0.00010732451, Final residual = 5.66101e-09, No Iterations 7
GAMG:  Solving for p, Initial residual = 5.6611579e-09, Final residual = 5.6611579e-09, No Iterations 0
time step continuity errors : sum local = 3.9009174e-09, global = -1.3425314e-09, cumulative = -6.1222069e-07
ExecutionTime = 1.26 s  ClockTime = 1 s

Time = 96

GAMG:  Solving for p, Initial residual = 0.00010243255, Final residual = 5.2713852e-09, No Iterations 7
GAMG:  Solving for p, Initial residual = 5.2715167e-09, Final residual = 5.2715167e-09, No Iterations 0
time step continuity errors : sum local = 3.6320713e-09, global = -1.185311e-09, cumulative = -6.13406e-07
ExecutionTime = 1.27 s  ClockTime = 2 s

Time = 97

GAMG:  Solving for p, Initial residual = 9.7756679e-05, Final residual = 4.8802228e-09, No Iterations 7
GAMG:  Solving for p, Initial residual = 4.8803392e-09, Final residual = 4.8803392e-09, No Iterations 0
time step continuity errors : sum local = 3.3622428e-09, global = -1.0151614e-09, cumulative = -6.1442116e-07
ExecutionTime = 1.28 s  ClockTime = 2 s

Time = 98

GAMG:  Solving for p, Initial residual = 9.3317645e-05, Final residual = 4.536576e-09, No Iterations 7
GAMG:  Solving for p, Initial residual = 4.5366797e-09, Final residual = 4.5366797e-09, No Iterations 0
time step continuity errors : sum local = 3.1251542e-09, global = -8.6808494e-10, cumulative = -6.1528925e-07
ExecutionTime = 1.29 s  ClockTime = 2 s

Time = 99

GAMG:  Solving for p, Initial residual = 8.9110627e-05, Final residual = 4.2487259e-09, No Iterations 7
GAMG:  Solving for p, Initial residual = 4.2488191e-09, Final residual = 4.2488191e-09, No Iterations 0
time step continuity errors : sum local = 2.9265586e-09, global = -7.5850196e-10, cumulative = -6.1604775e-07
ExecutionTime = 1.3 s  ClockTime = 2 s

Time = 100

GAMG:  Solving for p, Initial residual = 8.5115613e-05, Final residual = 4.0116465e-09, No Iterations 7
GAMG:  Solving for p, Initial residual = 4.011731e-09, Final residual = 4.011731e-09, No Iterations 0
time step continuity errors : sum local = 2.7630038e-09, global = -6.8209279e-10, cumulative = -6.1672984e-07
ExecutionTime = 1.31 s  ClockTime = 2 s

Time = 101

GAMG:  Solving for p, Initial residual = 8.1315569e-05, Final residual = 3.8084303e-09, No Iterations 7
GAMG:  Solving for p, Initial residual = 3.8085069e-09, Final residual = 3.8085069e-09, No Iterations 0
time step continuity errors : sum local = 2.6227726e-09, global = -6.2778551e-10, cumulative = -6.1735763e-07
ExecutionTime = 1.33 s  ClockTime = 2 s

Time = 102

GAMG:  Solving for p, Initial residual = 7.769622e-05, Final residual = 3.6272735e-09, No Iterations 7
GAMG:  Solving for p, Initial residual = 3.6273409e-09, Final residual = 3.6273409e-09, No Iterations 0
time step continuity errors : sum local = 2.4977763e-09, global = -5.8605942e-10, cumulative = -6.1794369e-07
ExecutionTime = 1.34 s  ClockTime = 2 s

Time = 103

GAMG:  Solving for p, Initial residual = 7.4245281e-05, Final residual = 3.4616649e-09, No Iterations 7
GAMG:  Solving for p, Initial residual = 3.461724e-09, Final residual = 3.461724e-09, No Iterations 0
time step continuity errors : sum local = 2.3834965e-09, global = -5.5089525e-10, cumulative = -6.1849458e-07
ExecutionTime = 1.35 s  ClockTime = 2 s

Time = 104

GAMG:  Solving for p, Initial residual = 7.0952809e-05, Final residual = 3.3068667e-09, No Iterations 7
GAMG:  Solving for p, Initial residual = 3.3069182e-09, Final residual = 3.3069182e-09, No Iterations 0
time step continuity errors : sum local = 2.2767145e-09, global = -5.1921413e-10, cumulative = -6.190138e-07
ExecutionTime = 1.36 s  ClockTime = 2 s

Time = 105

GAMG:  Solving for p, Initial residual = 6.7808976e-05, Final residual = 3.1631117e-09, No Iterations 7
GAMG:  Solving for p, Initial residual = 3.1631571e-09, Final residual = 3.1631571e-09, No Iterations 0
time step continuity errors : sum local = 2.177529e-09, global = -4.8996753e-10, cumulative = -6.1950376e-07
ExecutionTime = 1.37 s  ClockTime = 2 s

Time = 106

GAMG:  Solving for p, Initial residual = 6.480601e-05, Final residual = 3.0318101e-09, No Iterations 7
GAMG:  Solving for p, Initial residual = 3.0318506e-09, Final residual = 3.0318506e-09, No Iterations 0
time step continuity errors : sum local = 2.0869637e-09, global = -4.6356895e-10, cumulative = -6.1996733e-07
ExecutionTime = 1.38 s  ClockTime = 2 s

Time = 107

GAMG:  Solving for p, Initial residual = 6.19383e-05, Final residual = 2.9132137e-09, No Iterations 7
GAMG:  Solving for p, Initial residual = 2.91325e-09, Final residual = 2.91325e-09, No Iterations 0
time step continuity errors : sum local = 2.0051517e-09, global = -4.408209e-10, cumulative = -6.2040815e-07
ExecutionTime = 1.39 s  ClockTime = 2 s

Time = 108

GAMG:  Solving for p, Initial residual = 5.920117e-05, Final residual = 2.8036852e-09, No Iterations 7
GAMG:  Solving for p, Initial residual = 2.8037179e-09, Final residual = 2.8037179e-09, No Iterations 0
time step continuity errors : sum local = 1.9295707e-09, global = -4.2197413e-10, cumulative = -6.2083013e-07
ExecutionTime = 1.4 s  ClockTime = 2 s

Time = 109

GAMG:  Solving for p, Initial residual = 5.6590153e-05, Final residual = 2.6995939e-09, No Iterations 7
GAMG:  Solving for p, Initial residual = 2.699624e-09, Final residual = 2.699624e-09, No Iterations 0
time step continuity errors : sum local = 1.8577621e-09, global = -4.0653804e-10, cumulative = -6.2123667e-07
ExecutionTime = 1.41 s  ClockTime = 2 s

Time = 110

GAMG:  Solving for p, Initial residual = 5.410013e-05, Final residual = 2.5985433e-09, No Iterations 7
GAMG:  Solving for p, Initial residual = 2.5985712e-09, Final residual = 2.5985712e-09, No Iterations 0
time step continuity errors : sum local = 1.7880616e-09, global = -3.9356121e-10, cumulative = -6.2163023e-07
ExecutionTime = 1.42 s  ClockTime = 2 s

Time = 111

GAMG:  Solving for p, Initial residual = 5.172548e-05, Final residual = 2.4995614e-09, No Iterations 7
GAMG:  Solving for p, Initial residual = 2.4995871e-09, Final residual = 2.4995871e-09, No Iterations 0
time step continuity errors : sum local = 1.7197966e-09, global = -3.8213113e-10, cumulative = -6.2201236e-07
ExecutionTime = 1.44 s  ClockTime = 2 s

Time = 112

GAMG:  Solving for p, Initial residual = 4.9460795e-05, Final residual = 2.4020748e-09, No Iterations 7
GAMG:  Solving for p, Initial residual = 2.4020986e-09, Final residual = 2.4020986e-09, No Iterations 0
time step continuity errors : sum local = 1.6525842e-09, global = -3.7158727e-10, cumulative = -6.2238394e-07
ExecutionTime = 1.45 s  ClockTime = 2 s

Time = 113

GAMG:  Solving for p, Initial residual = 4.7300127e-05, Final residual = 2.3067878e-09, No Iterations 7
GAMG:  Solving for p, Initial residual = 2.3068098e-09, Final residual = 2.3068098e-09, No Iterations 0
time step continuity errors : sum local = 1.5868918e-09, global = -3.616587e-10, cumulative = -6.227456e-07
ExecutionTime = 1.46 s  ClockTime = 2 s

Time = 114

GAMG:  Solving for p, Initial residual = 4.5237984e-05, Final residual = 2.213849e-09, No Iterations 7
GAMG:  Solving for p, Initial residual = 2.2138692e-09, Final residual = 2.2138692e-09, No Iterations 0
time step continuity errors : sum local = 1.5228293e-09, global = -3.5227722e-10, cumulative = -6.2309788e-07
ExecutionTime = 1.47 s  ClockTime = 2 s

Time = 115

GAMG:  Solving for p, Initial residual = 4.3269378e-05, Final residual = 2.1240242e-09, No Iterations 7
GAMG:  Solving for p, Initial residual = 2.1240424e-09, Final residual = 2.1240424e-09, No Iterations 0
time step continuity errors : sum local = 1.4608926e-09, global = -3.4344683e-10, cumulative = -6.2344133e-07
ExecutionTime = 1.48 s  ClockTime = 2 s

Time = 116

GAMG:  Solving for p, Initial residual = 4.1389744e-05, Final residual = 2.0369276e-09, No Iterations 7
GAMG:  Solving for p, Initial residual = 2.0369437e-09, Final residual = 2.0369437e-09, No Iterations 0
time step continuity errors : sum local = 1.4008867e-09, global = -3.3511479e-10, cumulative = -6.2377644e-07
ExecutionTime = 1.49 s  ClockTime = 2 s

Time = 117

GAMG:  Solving for p, Initial residual = 3.9595206e-05, Final residual = 1.9521452e-09, No Iterations 7
GAMG:  Solving for p, Initial residual = 1.9521593e-09, Final residual = 1.9521593e-09, No Iterations 0
time step continuity errors : sum local = 1.3424672e-09, global = -3.2722833e-10, cumulative = -6.2410367e-07
ExecutionTime = 1.5 s  ClockTime = 2 s

Time = 118

GAMG:  Solving for p, Initial residual = 3.7881727e-05, Final residual = 1.8699925e-09, No Iterations 7
GAMG:  Solving for p, Initial residual = 1.870005e-09, Final residual = 1.870005e-09, No Iterations 0
time step continuity errors : sum local = 1.2858709e-09, global = -3.1963904e-10, cumulative = -6.2442331e-07
ExecutionTime = 1.51 s  ClockTime = 2 s

Time = 119

GAMG:  Solving for p, Initial residual = 3.6245749e-05, Final residual = 9.9681375e-09, No Iterations 6
GAMG:  Solving for p, Initial residual = 9.9682014e-09, Final residual = 9.9682014e-09, No Iterations 0
time step continuity errors : sum local = 6.8537692e-09, global = 1.9367008e-09, cumulative = -6.2248661e-07
ExecutionTime = 1.52 s  ClockTime = 2 s

Time = 120

GAMG:  Solving for p, Initial residual = 3.4683662e-05, Final residual = 9.5201698e-09, No Iterations 6
GAMG:  Solving for p, Initial residual = 9.5202258e-09, Final residual = 9.5202258e-09, No Iterations 0
time step continuity errors : sum local = 6.545226e-09, global = 1.8339535e-09, cumulative = -6.2065266e-07
ExecutionTime = 1.53 s  ClockTime = 2 s

Time = 121

GAMG:  Solving for p, Initial residual = 3.3192322e-05, Final residual = 9.0965259e-09, No Iterations 6
GAMG:  Solving for p, Initial residual = 9.0965748e-09, Final residual = 9.0965748e-09, No Iterations 0
time step continuity errors : sum local = 6.2534577e-09, global = 1.7366055e-09, cumulative = -6.1891605e-07
ExecutionTime = 1.55 s  ClockTime = 2 s

Time = 122

GAMG:  Solving for p, Initial residual = 3.1768323e-05, Final residual = 8.6967978e-09, No Iterations 6
GAMG:  Solving for p, Initial residual = 8.6968402e-09, Final residual = 8.6968402e-09, No Iterations 0
time step continuity errors : sum local = 5.9781693e-09, global = 1.6447831e-09, cumulative = -6.1727127e-07
ExecutionTime = 1.56 s  ClockTime = 2 s

Time = 123

GAMG:  Solving for p, Initial residual = 3.0421976e-05, Final residual = 8.3197044e-09, No Iterations 6
GAMG:  Solving for p, Initial residual = 8.3197421e-09, Final residual = 8.3197421e-09, No Iterations 0
time step continuity errors : sum local = 5.7184702e-09, global = 1.5583342e-09, cumulative = -6.1571293e-07
ExecutionTime = 1.57 s  ClockTime = 2 s

Time = 124

GAMG:  Solving for p, Initial residual = 2.9136794e-05, Final residual = 7.9635643e-09, No Iterations 6
GAMG:  Solving for p, Initial residual = 7.9635991e-09, Final residual = 7.9635991e-09, No Iterations 0
time step continuity errors : sum local = 5.4732492e-09, global = 1.4769266e-09, cumulative = -6.1423601e-07
ExecutionTime = 1.58 s  ClockTime = 2 s

Time = 125

GAMG:  Solving for p, Initial residual = 2.7909482e-05, Final residual = 7.6265161e-09, No Iterations 6
GAMG:  Solving for p, Initial residual = 7.6265482e-09, Final residual = 7.6265482e-09, No Iterations 0
time step continuity errors : sum local = 5.2411697e-09, global = 1.4001553e-09, cumulative = -6.1283585e-07
ExecutionTime = 1.59 s  ClockTime = 2 s

Time = 126

GAMG:  Solving for p, Initial residual = 2.6737083e-05, Final residual = 7.3066621e-09, No Iterations 6
GAMG:  Solving for p, Initial residual = 7.3066918e-09, Final residual = 7.3066918e-09, No Iterations 0
time step continuity errors : sum local = 5.0209673e-09, global = 1.3276869e-09, cumulative = -6.1150816e-07
ExecutionTime = 1.6 s  ClockTime = 2 s

Time = 127

GAMG:  Solving for p, Initial residual = 2.5616928e-05, Final residual = 7.0025888e-09, No Iterations 6
GAMG:  Solving for p, Initial residual = 7.0026163e-09, Final residual = 7.0026163e-09, No Iterations 0
time step continuity errors : sum local = 4.8116047e-09, global = 1.2592714e-09, cumulative = -6.1024889e-07
ExecutionTime = 1.61 s  ClockTime = 2 s

Time = 128

GAMG:  Solving for p, Initial residual = 2.4546661e-05, Final residual = 6.7134852e-09, No Iterations 6
GAMG:  Solving for p, Initial residual = 6.7135107e-09, Final residual = 6.7135107e-09, No Iterations 0
time step continuity errors : sum local = 4.6125923e-09, global = 1.1947289e-09, cumulative = -6.0905416e-07
ExecutionTime = 1.62 s  ClockTime = 2 s

Time = 129

GAMG:  Solving for p, Initial residual = 2.3524117e-05, Final residual = 6.4387573e-09, No Iterations 6
GAMG:  Solving for p, Initial residual = 6.4387809e-09, Final residual = 6.4387809e-09, No Iterations 0
time step continuity errors : sum local = 4.4234972e-09, global = 1.1339011e-09, cumulative = -6.0792026e-07
ExecutionTime = 1.63 s  ClockTime = 2 s

Time = 130

GAMG:  Solving for p, Initial residual = 2.2547128e-05, Final residual = 6.1778109e-09, No Iterations 6
GAMG:  Solving for p, Initial residual = 6.1778328e-09, Final residual = 6.1778328e-09, No Iterations 0
time step continuity errors : sum local = 4.2438878e-09, global = 1.0765751e-09, cumulative = -6.0684369e-07
ExecutionTime = 1.64 s  ClockTime = 2 s

Time = 131

GAMG:  Solving for p, Initial residual = 2.1615536e-05, Final residual = 5.9301693e-09, No Iterations 6
GAMG:  Solving for p, Initial residual = 5.9301895e-09, Final residual = 5.9301895e-09, No Iterations 0
time step continuity errors : sum local = 4.0734491e-09, global = 1.0225612e-09, cumulative = -6.0582113e-07
ExecutionTime = 1.65 s  ClockTime = 2 s

Time = 132

GAMG:  Solving for p, Initial residual = 2.0736474e-05, Final residual = 5.6950334e-09, No Iterations 6
GAMG:  Solving for p, Initial residual = 5.6950522e-09, Final residual = 5.6950522e-09, No Iterations 0
time step continuity errors : sum local = 3.9116108e-09, global = 9.716986e-10, cumulative = -6.0484943e-07
ExecutionTime = 1.66 s  ClockTime = 2 s

Time = 133

GAMG:  Solving for p, Initial residual = 1.9907831e-05, Final residual = 5.4719992e-09, No Iterations 6
GAMG:  Solving for p, Initial residual = 5.4720167e-09, Final residual = 5.4720167e-09, No Iterations 0
time step continuity errors : sum local = 3.7581298e-09, global = 9.2387848e-10, cumulative = -6.0392555e-07
ExecutionTime = 1.67 s  ClockTime = 2 s

Time = 134

GAMG:  Solving for p, Initial residual = 1.9116647e-05, Final residual = 5.2607817e-09, No Iterations 6
GAMG:  Solving for p, Initial residual = 5.2607979e-09, Final residual = 5.2607979e-09, No Iterations 0
time step continuity errors : sum local = 3.6127891e-09, global = 8.7877478e-10, cumulative = -6.0304677e-07
ExecutionTime = 1.68 s  ClockTime = 2 s

Time = 135

GAMG:  Solving for p, Initial residual = 1.8360541e-05, Final residual = 5.0612397e-09, No Iterations 6
GAMG:  Solving for p, Initial residual = 5.0612545e-09, Final residual = 5.0612545e-09, No Iterations 0
time step continuity errors : sum local = 3.4754717e-09, global = 8.3626188e-10, cumulative = -6.0221051e-07
ExecutionTime = 1.69 s  ClockTime = 2 s

Time = 136

GAMG:  Solving for p, Initial residual = 1.7639997e-05, Final residual = 4.8738113e-09, No Iterations 6
GAMG:  Solving for p, Initial residual = 4.8738249e-09, Final residual = 4.8738249e-09, No Iterations 0
time step continuity errors : sum local = 3.3465321e-09, global = 7.9612275e-10, cumulative = -6.0141439e-07
ExecutionTime = 1.7 s  ClockTime = 2 s

Time = 137

GAMG:  Solving for p, Initial residual = 1.6960924e-05, Final residual = 4.6971327e-09, No Iterations 6
GAMG:  Solving for p, Initial residual = 4.6971451e-09, Final residual = 4.6971451e-09, No Iterations 0
time step continuity errors : sum local = 3.2249556e-09, global = 7.5806804e-10, cumulative = -6.0065632e-07
ExecutionTime = 1.71 s  ClockTime = 2 s

Time = 138

GAMG:  Solving for p, Initial residual = 1.6312572e-05, Final residual = 4.5296088e-09, No Iterations 6
GAMG:  Solving for p, Initial residual = 4.5296203e-09, Final residual = 4.5296203e-09, No Iterations 0
time step continuity errors : sum local = 3.1096848e-09, global = 7.2200711e-10, cumulative = -5.9993431e-07
ExecutionTime = 1.72 s  ClockTime = 2 s

Time = 139

GAMG:  Solving for p, Initial residual = 1.5692485e-05, Final residual = 4.3719387e-09, No Iterations 6
GAMG:  Solving for p, Initial residual = 4.3719494e-09, Final residual = 4.3719494e-09, No Iterations 0
time step continuity errors : sum local = 3.0012375e-09, global = 6.877892e-10, cumulative = -5.9924653e-07
ExecutionTime = 1.74 s  ClockTime = 2 s

Time = 140

GAMG:  Solving for p, Initial residual = 1.5098675e-05, Final residual = 4.2238709e-09, No Iterations 6
GAMG:  Solving for p, Initial residual = 4.2238809e-09, Final residual = 4.2238809e-09, No Iterations 0
time step continuity errors : sum local = 2.8993647e-09, global = 6.5536313e-10, cumulative = -5.9859116e-07
ExecutionTime = 1.75 s  ClockTime = 2 s

Time = 141

GAMG:  Solving for p, Initial residual = 1.4530854e-05, Final residual = 4.0843595e-09, No Iterations 6
GAMG:  Solving for p, Initial residual = 4.0843687e-09, Final residual = 4.0843687e-09, No Iterations 0
time step continuity errors : sum local = 2.8033719e-09, global = 6.2464492e-10, cumulative = -5.9796652e-07
ExecutionTime = 1.77 s  ClockTime = 2 s

Time = 142

GAMG:  Solving for p, Initial residual = 1.3988266e-05, Final residual = 3.9530557e-09, No Iterations 6
GAMG:  Solving for p, Initial residual = 3.9530642e-09, Final residual = 3.9530642e-09, No Iterations 0
time step continuity errors : sum local = 2.7130427e-09, global = 5.9540654e-10, cumulative = -5.9737111e-07
ExecutionTime = 1.79 s  ClockTime = 2 s

Time = 143

GAMG:  Solving for p, Initial residual = 1.3469609e-05, Final residual = 3.8325748e-09, No Iterations 6
GAMG:  Solving for p, Initial residual = 3.8325825e-09, Final residual = 3.8325825e-09, No Iterations 0
time step continuity errors : sum local = 2.6301741e-09, global = 5.675108e-10, cumulative = -5.968036e-07
ExecutionTime = 1.8 s  ClockTime = 2 s

Time = 144

GAMG:  Solving for p, Initial residual = 1.2974179e-05, Final residual = 3.7212659e-09, No Iterations 6
GAMG:  Solving for p, Initial residual = 3.721273e-09, Final residual = 3.721273e-09, No Iterations 0
time step continuity errors : sum local = 2.5536109e-09, global = 5.4089402e-10, cumulative = -5.9626271e-07
ExecutionTime = 1.81 s  ClockTime = 2 s

Time = 145

GAMG:  Solving for p, Initial residual = 1.2500704e-05, Final residual = 3.6166606e-09, No Iterations 6
GAMG:  Solving for p, Initial residual = 3.6166673e-09, Final residual = 3.6166673e-09, No Iterations 0
time step continuity errors : sum local = 2.4816548e-09, global = 5.1532845e-10, cumulative = -5.9574738e-07
ExecutionTime = 1.82 s  ClockTime = 2 s

Time = 146

GAMG:  Solving for p, Initial residual = 1.2050492e-05, Final residual = 3.5190332e-09, No Iterations 6
GAMG:  Solving for p, Initial residual = 3.5190395e-09, Final residual = 3.5190395e-09, No Iterations 0
time step continuity errors : sum local = 2.4144702e-09, global = 4.907392e-10, cumulative = -5.9525664e-07
ExecutionTime = 1.83 s  ClockTime = 2 s

Time = 147

GAMG:  Solving for p, Initial residual = 1.1624295e-05, Final residual = 3.4277773e-09, No Iterations 6
GAMG:  Solving for p, Initial residual = 3.4277832e-09, Final residual = 3.4277832e-09, No Iterations 0
time step continuity errors : sum local = 2.3516935e-09, global = 4.6698409e-10, cumulative = -5.9478965e-07
ExecutionTime = 1.84 s  ClockTime = 2 s

Time = 148

GAMG:  Solving for p, Initial residual = 1.1216991e-05, Final residual = 3.3436618e-09, No Iterations 6
GAMG:  Solving for p, Initial residual = 3.3436674e-09, Final residual = 3.3436674e-09, No Iterations 0
time step continuity errors : sum local = 2.2938315e-09, global = 4.4408809e-10, cumulative = -5.9434557e-07
ExecutionTime = 1.85 s  ClockTime = 2 s

Time = 149

GAMG:  Solving for p, Initial residual = 1.082732e-05, Final residual = 3.2658719e-09, No Iterations 6
GAMG:  Solving for p, Initial residual = 3.265877e-09, Final residual = 3.265877e-09, No Iterations 0
time step continuity errors : sum local = 2.2403121e-09, global = 4.2203705e-10, cumulative = -5.9392353e-07
ExecutionTime = 1.87 s  ClockTime = 2 s

Time = 150

GAMG:  Solving for p, Initial residual = 1.0460401e-05, Final residual = 3.1917391e-09, No Iterations 6
GAMG:  Solving for p, Initial residual = 3.1917438e-09, Final residual = 3.1917438e-09, No Iterations 0
time step continuity errors : sum local = 2.1892726e-09, global = 4.007137e-10, cumulative = -5.9352282e-07
ExecutionTime = 1.88 s  ClockTime = 2 s

Time = 151

GAMG:  Solving for p, Initial residual = 1.0114697e-05, Final residual = 3.1201437e-09, No Iterations 6
GAMG:  Solving for p, Initial residual = 3.1201482e-09, Final residual = 3.1201482e-09, No Iterations 0
time step continuity errors : sum local = 2.1400348e-09, global = 3.8015123e-10, cumulative = -5.9314266e-07
ExecutionTime = 1.9 s  ClockTime = 2 s

Time = 152

GAMG:  Solving for p, Initial residual = 9.783671e-06, Final residual = 3.0511633e-09, No Iterations 6
GAMG:  Solving for p, Initial residual = 3.0511676e-09, Final residual = 3.0511676e-09, No Iterations 0
time step continuity errors : sum local = 2.0925812e-09, global = 3.6028453e-10, cumulative = -5.9278238e-07
ExecutionTime = 1.91 s  ClockTime = 2 s

Time = 153

GAMG:  Solving for p, Initial residual = 9.466991e-06, Final residual = 9.831965e-09, No Iterations 5
GAMG:  Solving for p, Initial residual = 9.8319785e-09, Final residual = 9.8319785e-09, No Iterations 0
time step continuity errors : sum local = 6.7424897e-09, global = -2.7781438e-09, cumulative = -5.9556052e-07
ExecutionTime = 1.92 s  ClockTime = 2 s

Time = 154

GAMG:  Solving for p, Initial residual = 9.1672776e-06, Final residual = 9.7420008e-09, No Iterations 5
GAMG:  Solving for p, Initial residual = 9.7420139e-09, Final residual = 9.7420139e-09, No Iterations 0
time step continuity errors : sum local = 6.680326e-09, global = -2.7157003e-09, cumulative = -5.9827622e-07
ExecutionTime = 1.94 s  ClockTime = 2 s

Time = 155

GAMG:  Solving for p, Initial residual = 8.8820363e-06, Final residual = 9.6485531e-09, No Iterations 5
GAMG:  Solving for p, Initial residual = 9.6485657e-09, Final residual = 9.6485657e-09, No Iterations 0
time step continuity errors : sum local = 6.6157966e-09, global = -2.6561592e-09, cumulative = -6.0093238e-07
ExecutionTime = 1.95 s  ClockTime = 2 s

Time = 156

GAMG:  Solving for p, Initial residual = 8.6118498e-06, Final residual = 9.5160374e-09, No Iterations 5
GAMG:  Solving for p, Initial residual = 9.5160495e-09, Final residual = 9.5160495e-09, No Iterations 0
time step continuity errors : sum local = 6.5244726e-09, global = -2.5922512e-09, cumulative = -6.0352463e-07
ExecutionTime = 1.96 s  ClockTime = 2 s

Time = 157

GAMG:  Solving for p, Initial residual = 8.3608176e-06, Final residual = 9.3344982e-09, No Iterations 5
GAMG:  Solving for p, Initial residual = 9.3345097e-09, Final residual = 9.3345097e-09, No Iterations 0
time step continuity errors : sum local = 6.3995708e-09, global = -2.5208655e-09, cumulative = -6.060455e-07
ExecutionTime = 1.97 s  ClockTime = 2 s

Time = 158

GAMG:  Solving for p, Initial residual = 8.1201283e-06, Final residual = 9.1144698e-09, No Iterations 5
GAMG:  Solving for p, Initial residual = 9.1144806e-09, Final residual = 9.1144806e-09, No Iterations 0
time step continuity errors : sum local = 6.2482909e-09, global = -2.4444861e-09, cumulative = -6.0848999e-07
ExecutionTime = 1.98 s  ClockTime = 2 s

Time = 159

GAMG:  Solving for p, Initial residual = 7.888629e-06, Final residual = 8.8780636e-09, No Iterations 5
GAMG:  Solving for p, Initial residual = 8.8780737e-09, Final residual = 8.8780737e-09, No Iterations 0
time step continuity errors : sum local = 6.085805e-09, global = -2.3684049e-09, cumulative = -6.1085839e-07
ExecutionTime = 1.99 s  ClockTime = 2 s

Time = 160

GAMG:  Solving for p, Initial residual = 7.6665796e-06, Final residual = 8.6448821e-09, No Iterations 5
GAMG:  Solving for p, Initial residual = 8.6448915e-09, Final residual = 8.6448915e-09, No Iterations 0
time step continuity errors : sum local = 5.9255522e-09, global = -2.2968234e-09, cumulative = -6.1315521e-07
ExecutionTime = 2 s  ClockTime = 2 s

Time = 161

GAMG:  Solving for p, Initial residual = 7.4554187e-06, Final residual = 8.4311784e-09, No Iterations 5
GAMG:  Solving for p, Initial residual = 8.4311872e-09, Final residual = 8.4311872e-09, No Iterations 0
time step continuity errors : sum local = 5.7786827e-09, global = -2.2314165e-09, cumulative = -6.1538663e-07
ExecutionTime = 2.01 s  ClockTime = 2 s

Time = 162

GAMG:  Solving for p, Initial residual = 7.2541362e-06, Final residual = 8.2447661e-09, No Iterations 5
GAMG:  Solving for p, Initial residual = 8.2447746e-09, Final residual = 8.2447746e-09, No Iterations 0
time step continuity errors : sum local = 5.6505147e-09, global = -2.1716902e-09, cumulative = -6.1755832e-07
ExecutionTime = 2.02 s  ClockTime = 2 s

Time = 163

GAMG:  Solving for p, Initial residual = 7.0614704e-06, Final residual = 8.0839851e-09, No Iterations 5
GAMG:  Solving for p, Initial residual = 8.0839932e-09, Final residual = 8.0839932e-09, No Iterations 0
time step continuity errors : sum local = 5.5399421e-09, global = -2.1164021e-09, cumulative = -6.1967472e-07
ExecutionTime = 2.04 s  ClockTime = 2 s

Time = 164

GAMG:  Solving for p, Initial residual = 6.877926e-06, Final residual = 7.9410856e-09, No Iterations 5
GAMG:  Solving for p, Initial residual = 7.9410934e-09, Final residual = 7.9410934e-09, No Iterations 0
time step continuity errors : sum local = 5.4416648e-09, global = -2.064414e-09, cumulative = -6.2173914e-07
ExecutionTime = 2.06 s  ClockTime = 2 s

Time = 165

GAMG:  Solving for p, Initial residual = 6.7020976e-06, Final residual = 7.8087089e-09, No Iterations 5
GAMG:  Solving for p, Initial residual = 7.8087164e-09, Final residual = 7.8087164e-09, No Iterations 0
time step continuity errors : sum local = 5.3505815e-09, global = -2.0149997e-09, cumulative = -6.2375414e-07
ExecutionTime = 2.08 s  ClockTime = 2 s

Time = 166

GAMG:  Solving for p, Initial residual = 6.5338755e-06, Final residual = 7.680739e-09, No Iterations 5
GAMG:  Solving for p, Initial residual = 7.6807462e-09, Final residual = 7.6807462e-09, No Iterations 0
time step continuity errors : sum local = 5.2625405e-09, global = -1.9678652e-09, cumulative = -6.25722e-07
ExecutionTime = 2.09 s  ClockTime = 2 s

Time = 167

GAMG:  Solving for p, Initial residual = 6.3758034e-06, Final residual = 7.5543963e-09, No Iterations 5
GAMG:  Solving for p, Initial residual = 7.5544033e-09, Final residual = 7.5544033e-09, No Iterations 0
time step continuity errors : sum local = 5.175633e-09, global = -1.9230289e-09, cumulative = -6.2764503e-07
ExecutionTime = 2.1 s  ClockTime = 2 s

Time = 168

GAMG:  Solving for p, Initial residual = 6.2313396e-06, Final residual = 7.4297571e-09, No Iterations 5
GAMG:  Solving for p, Initial residual = 7.4297639e-09, Final residual = 7.4297639e-09, No Iterations 0
time step continuity errors : sum local = 5.0899162e-09, global = -1.8806373e-09, cumulative = -6.2952567e-07
ExecutionTime = 2.11 s  ClockTime = 2 s

Time = 169

GAMG:  Solving for p, Initial residual = 6.0953147e-06, Final residual = 7.309271e-09, No Iterations 5
GAMG:  Solving for p, Initial residual = 7.3092774e-09, Final residual = 7.3092774e-09, No Iterations 0
time step continuity errors : sum local = 5.0070315e-09, global = -1.8407317e-09, cumulative = -6.313664e-07
ExecutionTime = 2.12 s  ClockTime = 2 s

Time = 170

GAMG:  Solving for p, Initial residual = 5.969866e-06, Final residual = 7.1972495e-09, No Iterations 5
GAMG:  Solving for p, Initial residual = 7.1972556e-09, Final residual = 7.1972556e-09, No Iterations 0
time step continuity errors : sum local = 4.9299813e-09, global = -1.803157e-09, cumulative = -6.3316956e-07
ExecutionTime = 2.13 s  ClockTime = 2 s

Time = 171

GAMG:  Solving for p, Initial residual = 5.8536205e-06, Final residual = 7.0960765e-09, No Iterations 5
GAMG:  Solving for p, Initial residual = 7.0960822e-09, Final residual = 7.0960822e-09, No Iterations 0
time step continuity errors : sum local = 4.8603622e-09, global = -1.7674542e-09, cumulative = -6.3493701e-07
ExecutionTime = 2.14 s  ClockTime = 2 s

Time = 172

GAMG:  Solving for p, Initial residual = 5.7418431e-06, Final residual = 7.0063597e-09, No Iterations 5
GAMG:  Solving for p, Initial residual = 7.0063652e-09, Final residual = 7.0063652e-09, No Iterations 0
time step continuity errors : sum local = 4.7986201e-09, global = -1.7330601e-09, cumulative = -6.3667007e-07
ExecutionTime = 2.15 s  ClockTime = 2 s

Time = 173

GAMG:  Solving for p, Initial residual = 5.6345668e-06, Final residual = 6.9288609e-09, No Iterations 5
GAMG:  Solving for p, Initial residual = 6.9288663e-09, Final residual = 6.9288663e-09, No Iterations 0
time step continuity errors : sum local = 4.7452055e-09, global = -1.6993406e-09, cumulative = -6.3836941e-07
ExecutionTime = 2.16 s  ClockTime = 2 s

Time = 174

GAMG:  Solving for p, Initial residual = 5.5318095e-06, Final residual = 6.8628064e-09, No Iterations 5
GAMG:  Solving for p, Initial residual = 6.8628116e-09, Final residual = 6.8628116e-09, No Iterations 0
time step continuity errors : sum local = 4.6996698e-09, global = -1.6657225e-09, cumulative = -6.4003513e-07
ExecutionTime = 2.17 s  ClockTime = 2 s

Time = 175

GAMG:  Solving for p, Initial residual = 5.4327141e-06, Final residual = 6.807464e-09, No Iterations 5
GAMG:  Solving for p, Initial residual = 6.8074691e-09, Final residual = 6.8074691e-09, No Iterations 0
time step continuity errors : sum local = 4.6614903e-09, global = -1.6318157e-09, cumulative = -6.4166695e-07
ExecutionTime = 2.18 s  ClockTime = 2 s

Time = 176

GAMG:  Solving for p, Initial residual = 5.3464561e-06, Final residual = 6.7624864e-09, No Iterations 5
GAMG:  Solving for p, Initial residual = 6.7624913e-09, Final residual = 6.7624913e-09, No Iterations 0
time step continuity errors : sum local = 4.6303928e-09, global = -1.5971817e-09, cumulative = -6.4326413e-07
ExecutionTime = 2.19 s  ClockTime = 2 s

Time = 177

GAMG:  Solving for p, Initial residual = 5.2752459e-06, Final residual = 6.7267664e-09, No Iterations 5
GAMG:  Solving for p, Initial residual = 6.7267713e-09, Final residual = 6.7267713e-09, No Iterations 0
time step continuity errors : sum local = 4.6056245e-09, global = -1.5614239e-09, cumulative = -6.4482556e-07
ExecutionTime = 2.2 s  ClockTime = 2 s

Time = 178

GAMG:  Solving for p, Initial residual = 5.2064799e-06, Final residual = 6.6991828e-09, No Iterations 5
GAMG:  Solving for p, Initial residual = 6.6991876e-09, Final residual = 6.6991876e-09, No Iterations 0
time step continuity errors : sum local = 4.5864492e-09, global = -1.5241576e-09, cumulative = -6.4634971e-07
ExecutionTime = 2.21 s  ClockTime = 2 s

Time = 179

GAMG:  Solving for p, Initial residual = 5.1427144e-06, Final residual = 6.6786799e-09, No Iterations 5
GAMG:  Solving for p, Initial residual = 6.6786846e-09, Final residual = 6.6786846e-09, No Iterations 0
time step continuity errors : sum local = 4.5721413e-09, global = -1.4850585e-09, cumulative = -6.4783477e-07
ExecutionTime = 2.23 s  ClockTime = 2 s

Time = 180

GAMG:  Solving for p, Initial residual = 5.0922605e-06, Final residual = 6.6646132e-09, No Iterations 5
GAMG:  Solving for p, Initial residual = 6.6646178e-09, Final residual = 6.6646178e-09, No Iterations 0
time step continuity errors : sum local = 4.5622094e-09, global = -1.4438428e-09, cumulative = -6.4927861e-07
ExecutionTime = 2.24 s  ClockTime = 2 s

Time = 181

GAMG:  Solving for p, Initial residual = 5.047764e-06, Final residual = 6.6567988e-09, No Iterations 5
GAMG:  Solving for p, Initial residual = 6.6568032e-09, Final residual = 6.6568032e-09, No Iterations 0
time step continuity errors : sum local = 4.5566045e-09, global = -1.4003837e-09, cumulative = -6.50679e-07
ExecutionTime = 2.25 s  ClockTime = 2 s

Time = 182

GAMG:  Solving for p, Initial residual = 5.0087764e-06, Final residual = 6.6550449e-09, No Iterations 5
GAMG:  Solving for p, Initial residual = 6.6550492e-09, Final residual = 6.6550492e-09, No Iterations 0
time step continuity errors : sum local = 4.5551096e-09, global = -1.3546413e-09, cumulative = -6.5203364e-07
ExecutionTime = 2.26 s  ClockTime = 2 s

Time = 183

GAMG:  Solving for p, Initial residual = 4.9705743e-06, Final residual = 6.6584112e-09, No Iterations 5
GAMG:  Solving for p, Initial residual = 6.6584154e-09, Final residual = 6.6584154e-09, No Iterations 0
time step continuity errors : sum local = 4.5571359e-09, global = -1.3068094e-09, cumulative = -6.5334045e-07
ExecutionTime = 2.27 s  ClockTime = 3 s

Time = 184

GAMG:  Solving for p, Initial residual = 4.9331093e-06, Final residual = 6.6608382e-09, No Iterations 5
GAMG:  Solving for p, Initial residual = 6.6608423e-09, Final residual = 6.6608423e-09, No Iterations 0
time step continuity errors : sum local = 4.558519e-09, global = -1.257268e-09, cumulative = -6.5459772e-07
ExecutionTime = 2.28 s  ClockTime = 3 s

Time = 185

GAMG:  Solving for p, Initial residual = 4.8962868e-06, Final residual = 6.6579544e-09, No Iterations 5
GAMG:  Solving for p, Initial residual = 6.6579585e-09, Final residual = 6.6579585e-09, No Iterations 0
time step continuity errors : sum local = 4.5562625e-09, global = -1.2063837e-09, cumulative = -6.558041e-07
ExecutionTime = 2.29 s  ClockTime = 3 s

Time = 186

GAMG:  Solving for p, Initial residual = 4.8601663e-06, Final residual = 6.6485742e-09, No Iterations 5
GAMG:  Solving for p, Initial residual = 6.6485783e-09, Final residual = 6.6485783e-09, No Iterations 0
time step continuity errors : sum local = 4.5495542e-09, global = -1.1547469e-09, cumulative = -6.5695885e-07
ExecutionTime = 2.3 s  ClockTime = 3 s

Time = 187

GAMG:  Solving for p, Initial residual = 4.8248088e-06, Final residual = 6.6315117e-09, No Iterations 5
GAMG:  Solving for p, Initial residual = 6.6315157e-09, Final residual = 6.6315157e-09, No Iterations 0
time step continuity errors : sum local = 4.5376138e-09, global = -1.1029419e-09, cumulative = -6.5806179e-07
ExecutionTime = 2.31 s  ClockTime = 3 s

Time = 188

GAMG:  Solving for p, Initial residual = 4.7901926e-06, Final residual = 6.6064663e-09, No Iterations 5
GAMG:  Solving for p, Initial residual = 6.6064703e-09, Final residual = 6.6064703e-09, No Iterations 0
time step continuity errors : sum local = 4.5202074e-09, global = -1.0514837e-09, cumulative = -6.5911327e-07
ExecutionTime = 2.32 s  ClockTime = 3 s

Time = 189

GAMG:  Solving for p, Initial residual = 4.7562063e-06, Final residual = 6.5734043e-09, No Iterations 5
GAMG:  Solving for p, Initial residual = 6.5734082e-09, Final residual = 6.5734082e-09, No Iterations 0
time step continuity errors : sum local = 4.4973131e-09, global = -1.0010191e-09, cumulative = -6.6011429e-07
ExecutionTime = 2.33 s  ClockTime = 3 s

Time = 190

GAMG:  Solving for p, Initial residual = 4.7228391e-06, Final residual = 6.532347e-09, No Iterations 5
GAMG:  Solving for p, Initial residual = 6.5323508e-09, Final residual = 6.5323508e-09, No Iterations 0
time step continuity errors : sum local = 4.4689549e-09, global = -9.5198231e-10, cumulative = -6.6106627e-07
ExecutionTime = 2.35 s  ClockTime = 3 s

Time = 191

GAMG:  Solving for p, Initial residual = 4.6900651e-06, Final residual = 6.483752e-09, No Iterations 5
GAMG:  Solving for p, Initial residual = 6.4837557e-09, Final residual = 6.4837557e-09, No Iterations 0
time step continuity errors : sum local = 4.4354578e-09, global = -9.0489988e-10, cumulative = -6.6197117e-07
ExecutionTime = 2.36 s  ClockTime = 3 s

Time = 192

GAMG:  Solving for p, Initial residual = 4.6578574e-06, Final residual = 6.4283908e-09, No Iterations 5
GAMG:  Solving for p, Initial residual = 6.4283943e-09, Final residual = 6.4283943e-09, No Iterations 0
time step continuity errors : sum local = 4.397333e-09, global = -8.6014591e-10, cumulative = -6.6283132e-07
ExecutionTime = 2.37 s  ClockTime = 3 s

Time = 193

GAMG:  Solving for p, Initial residual = 4.6262012e-06, Final residual = 6.3670477e-09, No Iterations 5
GAMG:  Solving for p, Initial residual = 6.3670512e-09, Final residual = 6.3670512e-09, No Iterations 0
time step continuity errors : sum local = 4.3551124e-09, global = -8.1796159e-10, cumulative = -6.6364928e-07
ExecutionTime = 2.38 s  ClockTime = 3 s

Time = 194

GAMG:  Solving for p, Initial residual = 4.5955702e-06, Final residual = 6.3005195e-09, No Iterations 5
GAMG:  Solving for p, Initial residual = 6.3005229e-09, Final residual = 6.3005229e-09, No Iterations 0
time step continuity errors : sum local = 4.309329e-09, global = -7.7861241e-10, cumulative = -6.6442789e-07
ExecutionTime = 2.39 s  ClockTime = 3 s

Time = 195

GAMG:  Solving for p, Initial residual = 4.5654178e-06, Final residual = 6.2295428e-09, No Iterations 5
GAMG:  Solving for p, Initial residual = 6.2295462e-09, Final residual = 6.2295462e-09, No Iterations 0
time step continuity errors : sum local = 4.260562e-09, global = -7.4224313e-10, cumulative = -6.6517014e-07
ExecutionTime = 2.4 s  ClockTime = 3 s

Time = 196

GAMG:  Solving for p, Initial residual = 4.5357117e-06, Final residual = 6.1551362e-09, No Iterations 5
GAMG:  Solving for p, Initial residual = 6.1551395e-09, Final residual = 6.1551395e-09, No Iterations 0
time step continuity errors : sum local = 4.2094178e-09, global = -7.0894878e-10, cumulative = -6.6587909e-07
ExecutionTime = 2.41 s  ClockTime = 3 s

Time = 197

GAMG:  Solving for p, Initial residual = 4.5065945e-06, Final residual = 6.0778819e-09, No Iterations 5
GAMG:  Solving for p, Initial residual = 6.0778851e-09, Final residual = 6.0778851e-09, No Iterations 0
time step continuity errors : sum local = 4.1563288e-09, global = -6.7869402e-10, cumulative = -6.6655778e-07
ExecutionTime = 2.42 s  ClockTime = 3 s

Time = 198

GAMG:  Solving for p, Initial residual = 4.4779417e-06, Final residual = 5.9983973e-09, No Iterations 5
GAMG:  Solving for p, Initial residual = 5.9984004e-09, Final residual = 5.9984004e-09, No Iterations 0
time step continuity errors : sum local = 4.1017336e-09, global = -6.5146153e-10, cumulative = -6.6720924e-07
ExecutionTime = 2.43 s  ClockTime = 3 s

Time = 199

GAMG:  Solving for p, Initial residual = 4.4497282e-06, Final residual = 5.917151e-09, No Iterations 5
GAMG:  Solving for p, Initial residual = 5.9171541e-09, Final residual = 5.9171541e-09, No Iterations 0
time step continuity errors : sum local = 4.0459433e-09, global = -6.2717003e-10, cumulative = -6.6783641e-07
ExecutionTime = 2.44 s  ClockTime = 3 s

Time = 200

GAMG:  Solving for p, Initial residual = 4.4219735e-06, Final residual = 5.8349101e-09, No Iterations 5
GAMG:  Solving for p, Initial residual = 5.8349131e-09, Final residual = 5.8349131e-09, No Iterations 0
time step continuity errors : sum local = 3.989492e-09, global = -6.0568005e-10, cumulative = -6.6844209e-07
ExecutionTime = 2.45 s  ClockTime = 3 s

Time = 201

GAMG:  Solving for p, Initial residual = 4.3951652e-06, Final residual = 5.7518002e-09, No Iterations 5
GAMG:  Solving for p, Initial residual = 5.7518031e-09, Final residual = 5.7518031e-09, No Iterations 0
time step continuity errors : sum local = 3.9324415e-09, global = -5.8682388e-10, cumulative = -6.6902892e-07
ExecutionTime = 2.47 s  ClockTime = 3 s

Time = 202

GAMG:  Solving for p, Initial residual = 4.3687254e-06, Final residual = 5.668743e-09, No Iterations 5
GAMG:  Solving for p, Initial residual = 5.6687458e-09, Final residual = 5.6687458e-09, No Iterations 0
time step continuity errors : sum local = 3.8754508e-09, global = -5.7039705e-10, cumulative = -6.6959931e-07
ExecutionTime = 2.48 s  ClockTime = 3 s

Time = 203

GAMG:  Solving for p, Initial residual = 4.3426825e-06, Final residual = 5.5876861e-09, No Iterations 5
GAMG:  Solving for p, Initial residual = 5.5876889e-09, Final residual = 5.5876889e-09, No Iterations 0
time step continuity errors : sum local = 3.8198212e-09, global = -5.5622162e-10, cumulative = -6.7015553e-07
ExecutionTime = 2.49 s  ClockTime = 3 s

Time = 204

GAMG:  Solving for p, Initial residual = 4.3169993e-06, Final residual = 5.5073122e-09, No Iterations 5
GAMG:  Solving for p, Initial residual = 5.5073149e-09, Final residual = 5.5073149e-09, No Iterations 0
time step continuity errors : sum local = 3.7646498e-09, global = -5.4407847e-10, cumulative = -6.7069961e-07
ExecutionTime = 2.5 s  ClockTime = 3 s

Time = 205

GAMG:  Solving for p, Initial residual = 4.2916167e-06, Final residual = 5.4269953e-09, No Iterations 5
GAMG:  Solving for p, Initial residual = 5.4269979e-09, Final residual = 5.4269979e-09, No Iterations 0
time step continuity errors : sum local = 3.7095399e-09, global = -5.3375189e-10, cumulative = -6.7123336e-07
ExecutionTime = 2.51 s  ClockTime = 3 s

Time = 206

GAMG:  Solving for p, Initial residual = 4.2665934e-06, Final residual = 5.3467064e-09, No Iterations 5
GAMG:  Solving for p, Initial residual = 5.346709e-09, Final residual = 5.346709e-09, No Iterations 0
time step continuity errors : sum local = 3.6544517e-09, global = -5.2492027e-10, cumulative = -6.7175828e-07
ExecutionTime = 2.52 s  ClockTime = 3 s

Time = 207

GAMG:  Solving for p, Initial residual = 4.2419381e-06, Final residual = 5.2666075e-09, No Iterations 5
GAMG:  Solving for p, Initial residual = 5.26661e-09, Final residual = 5.26661e-09, No Iterations 0
time step continuity errors : sum local = 3.5995239e-09, global = -5.1735532e-10, cumulative = -6.7227564e-07
ExecutionTime = 2.53 s  ClockTime = 3 s

Time = 208

GAMG:  Solving for p, Initial residual = 4.2176056e-06, Final residual = 5.187316e-09, No Iterations 5
GAMG:  Solving for p, Initial residual = 5.1873185e-09, Final residual = 5.1873185e-09, No Iterations 0
time step continuity errors : sum local = 3.5451076e-09, global = -5.109116e-10, cumulative = -6.7278655e-07
ExecutionTime = 2.54 s  ClockTime = 3 s

Time = 209

GAMG:  Solving for p, Initial residual = 4.1939612e-06, Final residual = 5.1087363e-09, No Iterations 5
GAMG:  Solving for p, Initial residual = 5.1087387e-09, Final residual = 5.1087387e-09, No Iterations 0
time step continuity errors : sum local = 3.4912324e-09, global = -5.0526733e-10, cumulative = -6.7329182e-07
ExecutionTime = 2.55 s  ClockTime = 3 s

Time = 210

GAMG:  Solving for p, Initial residual = 4.1706302e-06, Final residual = 5.031286e-09, No Iterations 5
GAMG:  Solving for p, Initial residual = 5.0312884e-09, Final residual = 5.0312884e-09, No Iterations 0
time step continuity errors : sum local = 3.4381228e-09, global = -5.0022053e-10, cumulative = -6.7379204e-07
ExecutionTime = 2.56 s  ClockTime = 3 s

Time = 211

GAMG:  Solving for p, Initial residual = 4.1475628e-06, Final residual = 4.9548311e-09, No Iterations 5
GAMG:  Solving for p, Initial residual = 4.9548334e-09, Final residual = 4.9548334e-09, No Iterations 0
time step continuity errors : sum local = 3.3856799e-09, global = -4.9564712e-10, cumulative = -6.7428769e-07
ExecutionTime = 2.57 s  ClockTime = 3 s

Time = 212

GAMG:  Solving for p, Initial residual = 4.1247526e-06, Final residual = 4.8791084e-09, No Iterations 5
GAMG:  Solving for p, Initial residual = 4.8791106e-09, Final residual = 4.8791106e-09, No Iterations 0
time step continuity errors : sum local = 3.3337544e-09, global = -4.9135725e-10, cumulative = -6.7477904e-07
ExecutionTime = 2.58 s  ClockTime = 3 s

Time = 213

GAMG:  Solving for p, Initial residual = 4.1021779e-06, Final residual = 4.8039978e-09, No Iterations 5
[...]
GAMG:  Solving for p, Initial residual = 3.1982674e-09, Final residual = 3.1982674e-09, No Iterations 0
time step continuity errors : sum local = 2.1668265e-09, global = 2.2711044e-13, cumulative = -7.2092189e-07
ExecutionTime = 5.77 s  ClockTime = 6 s

Time = 478

GAMG:  Solving for p, Initial residual = 1.2461089e-06, Final residual = 3.1844887e-09, No Iterations 4
GAMG:  Solving for p, Initial residual = 3.1844891e-09, Final residual = 3.1844891e-09, No Iterations 0
time step continuity errors : sum local = 2.1574609e-09, global = 2.676218e-13, cumulative = -7.2092163e-07
ExecutionTime = 5.78 s  ClockTime = 6 s

Time = 479

GAMG:  Solving for p, Initial residual = 1.2407194e-06, Final residual = 3.1707161e-09, No Iterations 4
GAMG:  Solving for p, Initial residual = 3.1707165e-09, Final residual = 3.1707165e-09, No Iterations 0
time step continuity errors : sum local = 2.1480691e-09, global = 2.8623861e-13, cumulative = -7.2092134e-07
ExecutionTime = 5.81 s  ClockTime = 6 s

Time = 480

GAMG:  Solving for p, Initial residual = 1.2353536e-06, Final residual = 3.1570161e-09, No Iterations 4
GAMG:  Solving for p, Initial residual = 3.1570165e-09, Final residual = 3.1570165e-09, No Iterations 0
time step continuity errors : sum local = 2.1387793e-09, global = 3.3181069e-13, cumulative = -7.2092101e-07
ExecutionTime = 5.84 s  ClockTime = 6 s

Time = 481

GAMG:  Solving for p, Initial residual = 1.2300117e-06, Final residual = 3.1433828e-09, No Iterations 4
GAMG:  Solving for p, Initial residual = 3.1433833e-09, Final residual = 3.1433833e-09, No Iterations 0
time step continuity errors : sum local = 2.1294831e-09, global = 3.8719727e-13, cumulative = -7.2092062e-07
ExecutionTime = 5.87 s  ClockTime = 6 s

Time = 482

GAMG:  Solving for p, Initial residual = 1.2246932e-06, Final residual = 3.1298177e-09, No Iterations 4
GAMG:  Solving for p, Initial residual = 3.1298182e-09, Final residual = 3.1298182e-09, No Iterations 0
time step continuity errors : sum local = 2.1202441e-09, global = 4.0196727e-13, cumulative = -7.2092022e-07
ExecutionTime = 5.89 s  ClockTime = 6 s

Time = 483

GAMG:  Solving for p, Initial residual = 1.2193983e-06, Final residual = 3.1162898e-09, No Iterations 4
GAMG:  Solving for p, Initial residual = 3.1162902e-09, Final residual = 3.1162902e-09, No Iterations 0
time step continuity errors : sum local = 2.111055e-09, global = 4.5456309e-13, cumulative = -7.2091977e-07
ExecutionTime = 5.9 s  ClockTime = 6 s

Time = 484

GAMG:  Solving for p, Initial residual = 1.2141266e-06, Final residual = 3.1028179e-09, No Iterations 4
GAMG:  Solving for p, Initial residual = 3.1028183e-09, Final residual = 3.1028183e-09, No Iterations 0
time step continuity errors : sum local = 2.1019047e-09, global = 4.9719115e-13, cumulative = -7.2091927e-07
ExecutionTime = 5.92 s  ClockTime = 6 s

Time = 485

GAMG:  Solving for p, Initial residual = 1.2088783e-06, Final residual = 3.0894438e-09, No Iterations 4
GAMG:  Solving for p, Initial residual = 3.0894442e-09, Final residual = 3.0894442e-09, No Iterations 0
time step continuity errors : sum local = 2.0927892e-09, global = 5.3171217e-13, cumulative = -7.2091874e-07
ExecutionTime = 5.93 s  ClockTime = 6 s

Time = 486

GAMG:  Solving for p, Initial residual = 1.2036532e-06, Final residual = 3.0760896e-09, No Iterations 4
GAMG:  Solving for p, Initial residual = 3.07609e-09, Final residual = 3.07609e-09, No Iterations 0
time step continuity errors : sum local = 2.0837301e-09, global = 5.6340364e-13, cumulative = -7.2091817e-07
ExecutionTime = 5.94 s  ClockTime = 6 s

Time = 487

GAMG:  Solving for p, Initial residual = 1.1984511e-06, Final residual = 3.0628161e-09, No Iterations 4
GAMG:  Solving for p, Initial residual = 3.0628165e-09, Final residual = 3.0628165e-09, No Iterations 0
time step continuity errors : sum local = 2.0746983e-09, global = 5.9727009e-13, cumulative = -7.2091758e-07
ExecutionTime = 5.95 s  ClockTime = 6 s

Time = 488

GAMG:  Solving for p, Initial residual = 1.193272e-06, Final residual = 3.0495727e-09, No Iterations 4
GAMG:  Solving for p, Initial residual = 3.0495731e-09, Final residual = 3.0495731e-09, No Iterations 0
time step continuity errors : sum local = 2.0656814e-09, global = 6.4082569e-13, cumulative = -7.2091693e-07
ExecutionTime = 5.96 s  ClockTime = 6 s

Time = 489

GAMG:  Solving for p, Initial residual = 1.1881157e-06, Final residual = 3.0364313e-09, No Iterations 4
GAMG:  Solving for p, Initial residual = 3.0364317e-09, Final residual = 3.0364317e-09, No Iterations 0
time step continuity errors : sum local = 2.0567494e-09, global = 6.5770501e-13, cumulative = -7.2091628e-07
ExecutionTime = 5.98 s  ClockTime = 6 s

Time = 490

GAMG:  Solving for p, Initial residual = 1.1829822e-06, Final residual = 3.023316e-09, No Iterations 4
GAMG:  Solving for p, Initial residual = 3.0233164e-09, Final residual = 3.0233164e-09, No Iterations 0
time step continuity errors : sum local = 2.0478328e-09, global = 7.230728e-13, cumulative = -7.2091555e-07
ExecutionTime = 5.99 s  ClockTime = 6 s

Time = 491

GAMG:  Solving for p, Initial residual = 1.1778712e-06, Final residual = 3.0102798e-09, No Iterations 4
GAMG:  Solving for p, Initial residual = 3.0102802e-09, Final residual = 3.0102802e-09, No Iterations 0
time step continuity errors : sum local = 2.0389661e-09, global = 7.4411561e-13, cumulative = -7.2091481e-07
ExecutionTime = 6 s  ClockTime = 6 s

Time = 492

GAMG:  Solving for p, Initial residual = 1.1727828e-06, Final residual = 2.9972481e-09, No Iterations 4
GAMG:  Solving for p, Initial residual = 2.9972485e-09, Final residual = 2.9972485e-09, No Iterations 0
time step continuity errors : sum local = 2.0301244e-09, global = 7.6107642e-13, cumulative = -7.2091405e-07
ExecutionTime = 6.01 s  ClockTime = 6 s

Time = 493

GAMG:  Solving for p, Initial residual = 1.1677169e-06, Final residual = 2.9843153e-09, No Iterations 4
GAMG:  Solving for p, Initial residual = 2.9843157e-09, Final residual = 2.9843157e-09, No Iterations 0
time step continuity errors : sum local = 2.0213305e-09, global = 8.0007738e-13, cumulative = -7.2091325e-07
ExecutionTime = 6.02 s  ClockTime = 6 s

Time = 494

GAMG:  Solving for p, Initial residual = 1.1626733e-06, Final residual = 2.9714832e-09, No Iterations 4
GAMG:  Solving for p, Initial residual = 2.9714836e-09, Final residual = 2.9714836e-09, No Iterations 0
time step continuity errors : sum local = 2.0125779e-09, global = 8.2305525e-13, cumulative = -7.2091243e-07
ExecutionTime = 6.03 s  ClockTime = 6 s

Time = 495

GAMG:  Solving for p, Initial residual = 1.1576519e-06, Final residual = 9.9823649e-09, No Iterations 3
GAMG:  Solving for p, Initial residual = 9.9823662e-09, Final residual = 9.9823662e-09, No Iterations 0
time step continuity errors : sum local = 6.7610216e-09, global = -3.6594875e-11, cumulative = -7.2094902e-07
ExecutionTime = 6.04 s  ClockTime = 6 s

Time = 496

GAMG:  Solving for p, Initial residual = 1.1543695e-06, Final residual = 3.0049942e-09, No Iterations 4
GAMG:  Solving for p, Initial residual = 3.0049946e-09, Final residual = 3.0049946e-09, No Iterations 0
time step continuity errors : sum local = 2.0352392e-09, global = -3.8231602e-12, cumulative = -7.2095284e-07
ExecutionTime = 6.05 s  ClockTime = 6 s

Time = 497

GAMG:  Solving for p, Initial residual = 1.1489806e-06, Final residual = 2.9884214e-09, No Iterations 4
GAMG:  Solving for p, Initial residual = 2.9884218e-09, Final residual = 2.9884218e-09, No Iterations 0
time step continuity errors : sum local = 2.0239896e-09, global = -3.7388848e-12, cumulative = -7.2095658e-07
ExecutionTime = 6.07 s  ClockTime = 6 s

Time = 498

GAMG:  Solving for p, Initial residual = 1.1429598e-06, Final residual = 2.9580526e-09, No Iterations 4
GAMG:  Solving for p, Initial residual = 2.958053e-09, Final residual = 2.958053e-09, No Iterations 0
time step continuity errors : sum local = 2.0033646e-09, global = -2.3918775e-12, cumulative = -7.2095897e-07
ExecutionTime = 6.08 s  ClockTime = 6 s

Time = 499

GAMG:  Solving for p, Initial residual = 1.1376183e-06, Final residual = 9.8899228e-09, No Iterations 3
GAMG:  Solving for p, Initial residual = 9.889924e-09, Final residual = 9.889924e-09, No Iterations 0
time step continuity errors : sum local = 6.6979799e-09, global = -4.565413e-11, cumulative = -7.2100463e-07
ExecutionTime = 6.09 s  ClockTime = 6 s

Time = 500

GAMG:  Solving for p, Initial residual = 1.1339979e-06, Final residual = 2.9461198e-09, No Iterations 4
GAMG:  Solving for p, Initial residual = 2.9461201e-09, Final residual = 2.9461201e-09, No Iterations 0
time step continuity errors : sum local = 1.9952548e-09, global = -3.9497416e-12, cumulative = -7.2100858e-07
ExecutionTime = 6.1 s  ClockTime = 6 s

Time = 501

GAMG:  Solving for p, Initial residual = 1.1282347e-06, Final residual = 9.9267605e-09, No Iterations 3
GAMG:  Solving for p, Initial residual = 9.9267617e-09, Final residual = 9.9267617e-09, No Iterations 0
time step continuity errors : sum local = 6.7227201e-09, global = -5.8474915e-11, cumulative = -7.2106705e-07
ExecutionTime = 6.11 s  ClockTime = 6 s

Time = 502

GAMG:  Solving for p, Initial residual = 1.1256441e-06, Final residual = 2.9361254e-09, No Iterations 4
GAMG:  Solving for p, Initial residual = 2.9361257e-09, Final residual = 2.9361257e-09, No Iterations 0
time step continuity errors : sum local = 1.9884133e-09, global = -6.3704107e-12, cumulative = -7.2107342e-07
ExecutionTime = 6.13 s  ClockTime = 6 s

Time = 503

GAMG:  Solving for p, Initial residual = 1.1192226e-06, Final residual = 9.9029759e-09, No Iterations 3
GAMG:  Solving for p, Initial residual = 9.9029771e-09, Final residual = 9.9029771e-09, No Iterations 0
time step continuity errors : sum local = 6.7063844e-09, global = -6.6199704e-11, cumulative = -7.2113962e-07
ExecutionTime = 6.14 s  ClockTime = 6 s

Time = 504

GAMG:  Solving for p, Initial residual = 1.1162585e-06, Final residual = 9.9809438e-09, No Iterations 3
GAMG:  Solving for p, Initial residual = 9.980945e-09, Final residual = 9.980945e-09, No Iterations 0
time step continuity errors : sum local = 6.7591141e-09, global = -8.2406798e-11, cumulative = -7.2122203e-07
ExecutionTime = 6.16 s  ClockTime = 6 s

Time = 505

GAMG:  Solving for p, Initial residual = 1.1133796e-06, Final residual = 2.9174059e-09, No Iterations 4
GAMG:  Solving for p, Initial residual = 2.9174062e-09, Final residual = 2.9174062e-09, No Iterations 0
time step continuity errors : sum local = 1.9756395e-09, global = -1.161179e-11, cumulative = -7.2123364e-07
ExecutionTime = 6.17 s  ClockTime = 6 s

Time = 506

GAMG:  Solving for p, Initial residual = 1.1057635e-06, Final residual = 9.8299402e-09, No Iterations 3
GAMG:  Solving for p, Initial residual = 9.8299414e-09, Final residual = 9.8299414e-09, No Iterations 0
time step continuity errors : sum local = 6.6566517e-09, global = -7.6118293e-11, cumulative = -7.2130976e-07
ExecutionTime = 6.18 s  ClockTime = 6 s

Time = 507

GAMG:  Solving for p, Initial residual = 1.1018424e-06, Final residual = 9.8383055e-09, No Iterations 3
GAMG:  Solving for p, Initial residual = 9.8383067e-09, Final residual = 9.8383067e-09, No Iterations 0
time step continuity errors : sum local = 6.6621823e-09, global = -8.3132783e-11, cumulative = -7.2139289e-07
ExecutionTime = 6.19 s  ClockTime = 6 s

Time = 508

GAMG:  Solving for p, Initial residual = 1.098243e-06, Final residual = 9.8545439e-09, No Iterations 3
GAMG:  Solving for p, Initial residual = 9.8545451e-09, Final residual = 9.8545451e-09, No Iterations 0
time step continuity errors : sum local = 6.6730893e-09, global = -9.1917822e-11, cumulative = -7.2148481e-07
ExecutionTime = 6.2 s  ClockTime = 6 s

Time = 509

GAMG:  Solving for p, Initial residual = 1.0945293e-06, Final residual = 9.8531949e-09, No Iterations 3
GAMG:  Solving for p, Initial residual = 9.8531961e-09, Final residual = 9.8531961e-09, No Iterations 0
time step continuity errors : sum local = 6.6720924e-09, global = -9.9378364e-11, cumulative = -7.2158419e-07
ExecutionTime = 6.21 s  ClockTime = 6 s

Time = 510

GAMG:  Solving for p, Initial residual = 1.0904397e-06, Final residual = 9.8265507e-09, No Iterations 3
GAMG:  Solving for p, Initial residual = 9.8265519e-09, Final residual = 9.8265519e-09, No Iterations 0
time step continuity errors : sum local = 6.6539433e-09, global = -1.0373117e-10, cumulative = -7.2168792e-07
ExecutionTime = 6.22 s  ClockTime = 6 s

Time = 511

GAMG:  Solving for p, Initial residual = 1.0859001e-06, Final residual = 9.7793375e-09, No Iterations 3
GAMG:  Solving for p, Initial residual = 9.7793387e-09, Final residual = 9.7793387e-09, No Iterations 0
time step continuity errors : sum local = 6.6218801e-09, global = -1.0474297e-10, cumulative = -7.2179266e-07
ExecutionTime = 6.24 s  ClockTime = 6 s

Time = 512

GAMG:  Solving for p, Initial residual = 1.0810131e-06, Final residual = 9.7208548e-09, No Iterations 3
GAMG:  Solving for p, Initial residual = 9.7208559e-09, Final residual = 9.7208559e-09, No Iterations 0
time step continuity errors : sum local = 6.5821558e-09, global = -1.0307862e-10, cumulative = -7.2189574e-07
ExecutionTime = 6.25 s  ClockTime = 6 s

Time = 513

GAMG:  Solving for p, Initial residual = 1.0759555e-06, Final residual = 9.6607015e-09, No Iterations 3
GAMG:  Solving for p, Initial residual = 9.6607026e-09, Final residual = 9.6607026e-09, No Iterations 0
time step continuity errors : sum local = 6.5413422e-09, global = -9.9958845e-11, cumulative = -7.219957e-07
ExecutionTime = 6.26 s  ClockTime = 6 s

Time = 514

GAMG:  Solving for p, Initial residual = 1.070905e-06, Final residual = 9.6062108e-09, No Iterations 3
GAMG:  Solving for p, Initial residual = 9.6062119e-09, Final residual = 9.6062119e-09, No Iterations 0
time step continuity errors : sum local = 6.5043385e-09, global = -9.6523775e-11, cumulative = -7.2209222e-07
ExecutionTime = 6.27 s  ClockTime = 7 s

Time = 515

GAMG:  Solving for p, Initial residual = 1.0659891e-06, Final residual = 9.5605747e-09, No Iterations 3
GAMG:  Solving for p, Initial residual = 9.5605758e-09, Final residual = 9.5605758e-09, No Iterations 0
time step continuity errors : sum local = 6.4733496e-09, global = -9.3660536e-11, cumulative = -7.2218589e-07
ExecutionTime = 6.29 s  ClockTime = 7 s

Time = 516

GAMG:  Solving for p, Initial residual = 1.0612558e-06, Final residual = 9.522937e-09, No Iterations 3
GAMG:  Solving for p, Initial residual = 9.5229381e-09, Final residual = 9.5229381e-09, No Iterations 0
time step continuity errors : sum local = 6.4477839e-09, global = -9.1760621e-11, cumulative = -7.2227765e-07
ExecutionTime = 6.3 s  ClockTime = 7 s

Time = 517

GAMG:  Solving for p, Initial residual = 1.056692e-06, Final residual = 9.4897149e-09, No Iterations 3
GAMG:  Solving for p, Initial residual = 9.489716e-09, Final residual = 9.489716e-09, No Iterations 0
time step continuity errors : sum local = 6.4251989e-09, global = -9.0890592e-11, cumulative = -7.2236854e-07
ExecutionTime = 6.32 s  ClockTime = 7 s

Time = 518

GAMG:  Solving for p, Initial residual = 1.0522469e-06, Final residual = 9.456628e-09, No Iterations 3
GAMG:  Solving for p, Initial residual = 9.4566291e-09, Final residual = 9.4566291e-09, No Iterations 0
time step continuity errors : sum local = 6.402694e-09, global = -9.0828679e-11, cumulative = -7.2245937e-07
ExecutionTime = 6.33 s  ClockTime = 7 s

Time = 519

GAMG:  Solving for p, Initial residual = 1.0478582e-06, Final residual = 9.4206663e-09, No Iterations 3
GAMG:  Solving for p, Initial residual = 9.4206674e-09, Final residual = 9.4206674e-09, No Iterations 0
time step continuity errors : sum local = 6.3782741e-09, global = -9.1151194e-11, cumulative = -7.2255052e-07
ExecutionTime = 6.35 s  ClockTime = 7 s

Time = 520

GAMG:  Solving for p, Initial residual = 1.0434718e-06, Final residual = 9.3809043e-09, No Iterations 3
GAMG:  Solving for p, Initial residual = 9.3809054e-09, Final residual = 9.3809054e-09, No Iterations 0
time step continuity errors : sum local = 6.3512674e-09, global = -9.1576894e-11, cumulative = -7.2264209e-07
ExecutionTime = 6.36 s  ClockTime = 7 s

Time = 521

GAMG:  Solving for p, Initial residual = 1.0390549e-06, Final residual = 9.338136e-09, No Iterations 3
GAMG:  Solving for p, Initial residual = 9.338137e-09, Final residual = 9.338137e-09, No Iterations 0
time step continuity errors : sum local = 6.3221941e-09, global = -9.1853328e-11, cumulative = -7.2273395e-07
ExecutionTime = 6.37 s  ClockTime = 7 s

Time = 522

GAMG:  Solving for p, Initial residual = 1.034599e-06, Final residual = 9.2940918e-09, No Iterations 3
GAMG:  Solving for p, Initial residual = 9.2940928e-09, Final residual = 9.2940928e-09, No Iterations 0
time step continuity errors : sum local = 6.2923111e-09, global = -9.190475e-11, cumulative = -7.2282585e-07
ExecutionTime = 6.39 s  ClockTime = 7 s

Time = 523

GAMG:  Solving for p, Initial residual = 1.0301158e-06, Final residual = 9.2505521e-09, No Iterations 3
GAMG:  Solving for p, Initial residual = 9.2505531e-09, Final residual = 9.2505531e-09, No Iterations 0
time step continuity errors : sum local = 6.2627524e-09, global = -9.1720677e-11, cumulative = -7.2291757e-07
ExecutionTime = 6.4 s  ClockTime = 7 s

Time = 524

GAMG:  Solving for p, Initial residual = 1.0256274e-06, Final residual = 9.2087193e-09, No Iterations 3
GAMG:  Solving for p, Initial residual = 9.2087203e-09, Final residual = 9.2087203e-09, No Iterations 0
time step continuity errors : sum local = 6.2343231e-09, global = -9.1347234e-11, cumulative = -7.2300892e-07
ExecutionTime = 6.42 s  ClockTime = 7 s

Time = 525

GAMG:  Solving for p, Initial residual = 1.0211559e-06, Final residual = 9.1688465e-09, No Iterations 3
GAMG:  Solving for p, Initial residual = 9.1688475e-09, Final residual = 9.1688475e-09, No Iterations 0
time step continuity errors : sum local = 6.2072382e-09, global = -9.0848438e-11, cumulative = -7.2309977e-07
ExecutionTime = 6.43 s  ClockTime = 7 s

Time = 526

GAMG:  Solving for p, Initial residual = 1.0167177e-06, Final residual = 9.1305812e-09, No Iterations 3
GAMG:  Solving for p, Initial residual = 9.1305822e-09, Final residual = 9.1305822e-09, No Iterations 0
time step continuity errors : sum local = 6.181255e-09, global = -9.0319437e-11, cumulative = -7.2319009e-07
ExecutionTime = 6.44 s  ClockTime = 7 s

Time = 527

GAMG:  Solving for p, Initial residual = 1.0123198e-06, Final residual = 9.0931586e-09, No Iterations 3
GAMG:  Solving for p, Initial residual = 9.0931597e-09, Final residual = 9.0931597e-09, No Iterations 0
time step continuity errors : sum local = 6.1558403e-09, global = -8.9736422e-11, cumulative = -7.2327982e-07
ExecutionTime = 6.45 s  ClockTime = 7 s

Time = 528

GAMG:  Solving for p, Initial residual = 1.0079609e-06, Final residual = 9.05577e-09, No Iterations 3
GAMG:  Solving for p, Initial residual = 9.0557711e-09, Final residual = 9.0557711e-09, No Iterations 0
time step continuity errors : sum local = 6.1304493e-09, global = -8.9173296e-11, cumulative = -7.23369e-07
ExecutionTime = 6.46 s  ClockTime = 7 s

Time = 529

GAMG:  Solving for p, Initial residual = 1.0036343e-06, Final residual = 9.017827e-09, No Iterations 3
GAMG:  Solving for p, Initial residual = 9.017828e-09, Final residual = 9.017828e-09, No Iterations 0
time step continuity errors : sum local = 6.104666e-09, global = -8.8642602e-11, cumulative = -7.2345764e-07
ExecutionTime = 6.48 s  ClockTime = 7 s

Time = 530

GAMG:  Solving for p, Initial residual = 9.993312e-07, Final residual = 8.9791433e-09, No Iterations 3
GAMG:  Solving for p, Initial residual = 8.9791443e-09, Final residual = 8.9791443e-09, No Iterations 0
time step continuity errors : sum local = 6.0784013e-09, global = -8.8147394e-11, cumulative = -7.2354579e-07
ExecutionTime = 6.49 s  ClockTime = 7 s


SIMPLE solution converged in 530 iterations

End

