/*---------------------------------------------------------------------------*\
| =========                 |                                                 |
| \\      /  F ield         | OpenFOAM: The Open Source CFD Toolbox           |
|  \\    /   O peration     | Version:  2406                                  |
|   \\  /    A nd           | Website:  www.openfoam.com                      |
|    \\/     M anipulation  |                                                 |
\*---------------------------------------------------------------------------*/
Build  : _be01ca78-20240625 OPENFOAM=2406 version=2406
Arch   : "LSB;label=32;scalar=64"
Exec   : buoyantBoussinesqSimpleFoam
Date   : Nov 04 2024
Time   : 14:55:43
Host   : MatheusG15
PID    : 49072
I/O    : uncollated
Case   : /home/borges_openfoam/openFOAM/buoyantBoussinesqCase
nProcs : 1
trapFpe: Floating point exception trapping enabled (FOAM_SIGFPE).
fileModificationChecking : Monitoring run-time modified files using timeStampMaster (fileModificationSkew 5, maxFileModificationPolls 20)
allowSystemOperations : Allowing user-supplied system call operations

// * * * * * * * * * * * * * * * * * * * * * * * * * * * * * * * * * * * * * //
Create time

Create mesh for time = 0


SIMPLE: convergence criteria
    field p_rgh	 tolerance 0.01
    field U	 tolerance 0.0001
    field T	 tolerance 0.01
    field "(k|epsilon|omega)"	 tolerance 0.001

Reading thermophysical properties

Reading field T

Reading field p_rgh

Reading field U

Reading/calculating face flux field phi

Selecting incompressible transport model Newtonian
Creating turbulence model

Selecting turbulence model type RAS
Selecting RAS turbulence model kEpsilon
RAS
{
    RASModel        kEpsilon;
    turbulence      on;
    printCoeffs     on;
    Cmu             0.09;
    C1              1.44;
    C2              1.92;
    C3              0;
    sigmak          1;
    sigmaEps        1.3;
}

Reading field alphat


Reading g

Reading hRef
Calculating field g.h

No MRF models present

Radiation model not active: radiationProperties not found
Selecting radiationModel none
No finite volume options present

Starting time loop

Time = 1

DILUPBiCGStab:  Solving for Ux, Initial residual = 1, Final residual = 0.000696302, No Iterations 1
DILUPBiCGStab:  Solving for Uy, Initial residual = 1, Final residual = 0.000202689, No Iterations 1
DILUPBiCGStab:  Solving for T, Initial residual = 1, Final residual = 0.00148082, No Iterations 1
DICPCG:  Solving for p_rgh, Initial residual = 1, Final residual = 0.00828464, No Iterations 130
time step continuity errors : sum local = 0.00509824, global = 8.82321e-05, cumulative = 8.82321e-05
DILUPBiCGStab:  Solving for epsilon, Initial residual = 0.207939, Final residual = 0.00251332, No Iterations 1
DILUPBiCGStab:  Solving for k, Initial residual = 1, Final residual = 0.0466958, No Iterations 1
ExecutionTime = 0.03 s  ClockTime = 0 s

Time = 2

DILUPBiCGStab:  Solving for Ux, Initial residual = 0.618672, Final residual = 0.00258157, No Iterations 1
DILUPBiCGStab:  Solving for Uy, Initial residual = 0.524504, Final residual = 0.00258162, No Iterations 1
DILUPBiCGStab:  Solving for T, Initial residual = 0.350184, Final residual = 0.000849729, No Iterations 1
DICPCG:  Solving for p_rgh, Initial residual = 0.0581971, Final residual = 0.000511525, No Iterations 210
time step continuity errors : sum local = 0.21544, global = -0.000596585, cumulative = -0.000508353
DILUPBiCGStab:  Solving for epsilon, Initial residual = 0.767926, Final residual = 0.040764, No Iterations 1
DILUPBiCGStab:  Solving for k, Initial residual = 0.925086, Final residual = 0.0271043, No Iterations 1
ExecutionTime = 0.05 s  ClockTime = 0 s

Time = 3

DILUPBiCGStab:  Solving for Ux, Initial residual = 0.0348263, Final residual = 0.000197734, No Iterations 1
DILUPBiCGStab:  Solving for Uy, Initial residual = 0.0279615, Final residual = 0.000185321, No Iterations 1
DILUPBiCGStab:  Solving for T, Initial residual = 0.162494, Final residual = 0.000645375, No Iterations 1
DICPCG:  Solving for p_rgh, Initial residual = 0.144989, Final residual = 0.00123774, No Iterations 180
time step continuity errors : sum local = 0.0862124, global = 0.000861532, cumulative = 0.000353179
DILUPBiCGStab:  Solving for epsilon, Initial residual = 0.27333, Final residual = 0.0042098, No Iterations 1
DILUPBiCGStab:  Solving for k, Initial residual = 0.329416, Final residual = 0.0288999, No Iterations 1
ExecutionTime = 0.07 s  ClockTime = 0 s

Time = 4

DILUPBiCGStab:  Solving for Ux, Initial residual = 0.171999, Final residual = 0.00076682, No Iterations 1
DILUPBiCGStab:  Solving for Uy, Initial residual = 0.148442, Final residual = 0.000820912, No Iterations 1
DILUPBiCGStab:  Solving for T, Initial residual = 0.102148, Final residual = 0.00304131, No Iterations 1
DICPCG:  Solving for p_rgh, Initial residual = 0.0292858, Final residual = 0.000238952, No Iterations 149
time step continuity errors : sum local = 0.0800175, global = 0.000659538, cumulative = 0.00101272
DILUPBiCGStab:  Solving for epsilon, Initial residual = 0.165047, Final residual = 0.0123078, No Iterations 1
DILUPBiCGStab:  Solving for k, Initial residual = 0.207313, Final residual = 0.0161354, No Iterations 1
ExecutionTime = 0.12 s  ClockTime = 0 s

Time = 5

DILUPBiCGStab:  Solving for Ux, Initial residual = 0.0726688, Final residual = 0.000348982, No Iterations 1
DILUPBiCGStab:  Solving for Uy, Initial residual = 0.109771, Final residual = 0.000612708, No Iterations 1
DILUPBiCGStab:  Solving for T, Initial residual = 0.0947452, Final residual = 0.000545361, No Iterations 1
DICPCG:  Solving for p_rgh, Initial residual = 0.0504002, Final residual = 0.000473137, No Iterations 154
time step continuity errors : sum local = 0.054978, global = 0.000506049, cumulative = 0.00151877
DILUPBiCGStab:  Solving for epsilon, Initial residual = 0.107206, Final residual = 0.00897248, No Iterations 1
DILUPBiCGStab:  Solving for k, Initial residual = 0.133096, Final residual = 0.00938765, No Iterations 1
ExecutionTime = 0.14 s  ClockTime = 0 s

Time = 6

DILUPBiCGStab:  Solving for Ux, Initial residual = 0.0542034, Final residual = 0.000227511, No Iterations 1
DILUPBiCGStab:  Solving for Uy, Initial residual = 0.0446894, Final residual = 0.00024483, No Iterations 1
DILUPBiCGStab:  Solving for T, Initial residual = 0.0649043, Final residual = 0.000409104, No Iterations 1
DICPCG:  Solving for p_rgh, Initial residual = 0.0572002, Final residual = 0.00046625, No Iterations 149
time step continuity errors : sum local = 0.0289994, global = 0.000220578, cumulative = 0.00173934
DILUPBiCGStab:  Solving for epsilon, Initial residual = 0.0729197, Final residual = 0.00598303, No Iterations 1
DILUPBiCGStab:  Solving for k, Initial residual = 0.0976658, Final residual = 0.00672926, No Iterations 1
ExecutionTime = 0.15 s  ClockTime = 0 s

Time = 7

DILUPBiCGStab:  Solving for Ux, Initial residual = 0.0388813, Final residual = 0.00017563, No Iterations 1
DILUPBiCGStab:  Solving for Uy, Initial residual = 0.0458222, Final residual = 0.000259592, No Iterations 1
DILUPBiCGStab:  Solving for T, Initial residual = 0.0582414, Final residual = 0.000292515, No Iterations 1
DICPCG:  Solving for p_rgh, Initial residual = 0.0580464, Final residual = 0.000534286, No Iterations 140
time step continuity errors : sum local = 0.0247692, global = -0.000585783, cumulative = 0.00115356
DILUPBiCGStab:  Solving for epsilon, Initial residual = 0.054674, Final residual = 0.0043464, No Iterations 1
DILUPBiCGStab:  Solving for k, Initial residual = 0.0734256, Final residual = 0.00480972, No Iterations 1
ExecutionTime = 0.16 s  ClockTime = 0 s

Time = 8

DILUPBiCGStab:  Solving for Ux, Initial residual = 0.00921906, Final residual = 6.04299e-05, No Iterations 1
DILUPBiCGStab:  Solving for Uy, Initial residual = 0.023444, Final residual = 9.57984e-05, No Iterations 1
DILUPBiCGStab:  Solving for T, Initial residual = 0.0559397, Final residual = 0.000230907, No Iterations 1
DICPCG:  Solving for p_rgh, Initial residual = 0.20613, Final residual = 0.00177489, No Iterations 141
time step continuity errors : sum local = 0.0128279, global = 5.9423e-05, cumulative = 0.00121298
DILUPBiCGStab:  Solving for epsilon, Initial residual = 0.0450231, Final residual = 0.00335556, No Iterations 1
DILUPBiCGStab:  Solving for k, Initial residual = 0.0542748, Final residual = 0.00335127, No Iterations 1
ExecutionTime = 0.17 s  ClockTime = 0 s

Time = 9

DILUPBiCGStab:  Solving for Ux, Initial residual = 0.0139247, Final residual = 8.22715e-05, No Iterations 1
DILUPBiCGStab:  Solving for Uy, Initial residual = 0.0218511, Final residual = 0.000118104, No Iterations 1
DILUPBiCGStab:  Solving for T, Initial residual = 0.0529641, Final residual = 0.00028304, No Iterations 1
DICPCG:  Solving for p_rgh, Initial residual = 0.0831676, Final residual = 0.000681901, No Iterations 131
time step continuity errors : sum local = 0.0101879, global = 0.000176839, cumulative = 0.00138982
DILUPBiCGStab:  Solving for epsilon, Initial residual = 0.0366775, Final residual = 0.00243409, No Iterations 1
DILUPBiCGStab:  Solving for k, Initial residual = 0.0405184, Final residual = 0.002365, No Iterations 1
ExecutionTime = 0.18 s  ClockTime = 0 s

Time = 10

DILUPBiCGStab:  Solving for Ux, Initial residual = 0.00795676, Final residual = 6.16241e-05, No Iterations 1
DILUPBiCGStab:  Solving for Uy, Initial residual = 0.0184133, Final residual = 0.000101122, No Iterations 1
DILUPBiCGStab:  Solving for T, Initial residual = 0.0515832, Final residual = 0.000395273, No Iterations 1
DICPCG:  Solving for p_rgh, Initial residual = 0.131902, Final residual = 0.00131258, No Iterations 136
time step continuity errors : sum local = 0.0076466, global = -0.000132897, cumulative = 0.00125693
DILUPBiCGStab:  Solving for epsilon, Initial residual = 0.0297437, Final residual = 0.00163127, No Iterations 1
DILUPBiCGStab:  Solving for k, Initial residual = 0.0310984, Final residual = 0.00167577, No Iterations 1
ExecutionTime = 0.2 s  ClockTime = 0 s

Time = 11

DILUPBiCGStab:  Solving for Ux, Initial residual = 0.00898024, Final residual = 6.47489e-05, No Iterations 1
DILUPBiCGStab:  Solving for Uy, Initial residual = 0.0183383, Final residual = 9.0821e-05, No Iterations 1
DILUPBiCGStab:  Solving for T, Initial residual = 0.0498307, Final residual = 0.000389741, No Iterations 1
DICPCG:  Solving for p_rgh, Initial residual = 0.148983, Final residual = 0.00129426, No Iterations 134
time step continuity errors : sum local = 0.00503434, global = -4.84072e-05, cumulative = 0.00120852
DILUPBiCGStab:  Solving for epsilon, Initial residual = 0.0247897, Final residual = 0.00106656, No Iterations 1
DILUPBiCGStab:  Solving for k, Initial residual = 0.0265801, Final residual = 0.00120913, No Iterations 1
ExecutionTime = 0.21 s  ClockTime = 0 s

Time = 12

DILUPBiCGStab:  Solving for Ux, Initial residual = 0.00817205, Final residual = 6.49592e-05, No Iterations 1
DILUPBiCGStab:  Solving for Uy, Initial residual = 0.0186541, Final residual = 8.88897e-05, No Iterations 1
DILUPBiCGStab:  Solving for T, Initial residual = 0.0480802, Final residual = 0.000327615, No Iterations 1
DICPCG:  Solving for p_rgh, Initial residual = 0.161929, Final residual = 0.00125122, No Iterations 130
time step continuity errors : sum local = 0.00337725, global = -4.20859e-05, cumulative = 0.00116643
DILUPBiCGStab:  Solving for epsilon, Initial residual = 0.0214783, Final residual = 0.000702144, No Iterations 1
DILUPBiCGStab:  Solving for k, Initial residual = 0.0250215, Final residual = 0.00101728, No Iterations 1
ExecutionTime = 0.23 s  ClockTime = 0 s

Time = 13

DILUPBiCGStab:  Solving for Ux, Initial residual = 0.00793324, Final residual = 6.75561e-05, No Iterations 1
DILUPBiCGStab:  Solving for Uy, Initial residual = 0.0184311, Final residual = 9.24013e-05, No Iterations 1
DILUPBiCGStab:  Solving for T, Initial residual = 0.0445047, Final residual = 0.000263593, No Iterations 1
DICPCG:  Solving for p_rgh, Initial residual = 0.112891, Final residual = 0.00106669, No Iterations 118
time step continuity errors : sum local = 0.00339623, global = 1.90232e-05, cumulative = 0.00118546
DILUPBiCGStab:  Solving for epsilon, Initial residual = 0.0206524, Final residual = 0.000500875, No Iterations 1
DILUPBiCGStab:  Solving for k, Initial residual = 0.0249266, Final residual = 0.00100214, No Iterations 1
ExecutionTime = 0.25 s  ClockTime = 0 s

Time = 14

DILUPBiCGStab:  Solving for Ux, Initial residual = 0.00820848, Final residual = 7.12727e-05, No Iterations 1
DILUPBiCGStab:  Solving for Uy, Initial residual = 0.0180873, Final residual = 9.68808e-05, No Iterations 1
DILUPBiCGStab:  Solving for T, Initial residual = 0.0417739, Final residual = 0.000227612, No Iterations 1
DICPCG:  Solving for p_rgh, Initial residual = 0.0978626, Final residual = 0.00086953, No Iterations 122
time step continuity errors : sum local = 0.00285268, global = 1.38545e-05, cumulative = 0.00119931
DILUPBiCGStab:  Solving for epsilon, Initial residual = 0.0215172, Final residual = 0.000436079, No Iterations 1
DILUPBiCGStab:  Solving for k, Initial residual = 0.0253241, Final residual = 0.00104504, No Iterations 1
ExecutionTime = 0.26 s  ClockTime = 0 s

Time = 15

DILUPBiCGStab:  Solving for Ux, Initial residual = 0.00836149, Final residual = 7.39638e-05, No Iterations 1
DILUPBiCGStab:  Solving for Uy, Initial residual = 0.0180296, Final residual = 9.99227e-05, No Iterations 1
DILUPBiCGStab:  Solving for T, Initial residual = 0.0389664, Final residual = 0.000211651, No Iterations 1
DICPCG:  Solving for p_rgh, Initial residual = 0.0981774, Final residual = 0.000936649, No Iterations 120
time step continuity errors : sum local = 0.00266537, global = -4.66971e-05, cumulative = 0.00115261
DILUPBiCGStab:  Solving for epsilon, Initial residual = 0.0225667, Final residual = 0.000436464, No Iterations 1
DILUPBiCGStab:  Solving for k, Initial residual = 0.0259238, Final residual = 0.00110354, No Iterations 1
ExecutionTime = 0.28 s  ClockTime = 0 s

Time = 16

DILUPBiCGStab:  Solving for Ux, Initial residual = 0.0085555, Final residual = 7.55271e-05, No Iterations 1
DILUPBiCGStab:  Solving for Uy, Initial residual = 0.0180049, Final residual = 0.000102962, No Iterations 1
DILUPBiCGStab:  Solving for T, Initial residual = 0.0366764, Final residual = 0.000204196, No Iterations 1
DICPCG:  Solving for p_rgh, Initial residual = 0.0970438, Final residual = 0.000938371, No Iterations 124
time step continuity errors : sum local = 0.00247866, global = -4.86906e-05, cumulative = 0.00110392
DILUPBiCGStab:  Solving for epsilon, Initial residual = 0.0236239, Final residual = 0.000452923, No Iterations 1
DILUPBiCGStab:  Solving for k, Initial residual = 0.0266082, Final residual = 0.00115778, No Iterations 1
ExecutionTime = 0.29 s  ClockTime = 0 s

Time = 17

DILUPBiCGStab:  Solving for Ux, Initial residual = 0.00863802, Final residual = 7.59649e-05, No Iterations 1
DILUPBiCGStab:  Solving for Uy, Initial residual = 0.0179351, Final residual = 0.000106182, No Iterations 1
DILUPBiCGStab:  Solving for T, Initial residual = 0.0346891, Final residual = 0.000207845, No Iterations 1
DICPCG:  Solving for p_rgh, Initial residual = 0.0877788, Final residual = 0.000873803, No Iterations 119
time step continuity errors : sum local = 0.00235001, global = 4.01541e-06, cumulative = 0.00110794
DILUPBiCGStab:  Solving for epsilon, Initial residual = 0.0245957, Final residual = 0.000477673, No Iterations 1
DILUPBiCGStab:  Solving for k, Initial residual = 0.0273342, Final residual = 0.00120257, No Iterations 1
ExecutionTime = 0.3 s  ClockTime = 0 s

Time = 18

DILUPBiCGStab:  Solving for Ux, Initial residual = 0.00865296, Final residual = 7.55542e-05, No Iterations 1
DILUPBiCGStab:  Solving for Uy, Initial residual = 0.0177405, Final residual = 0.00010926, No Iterations 1
DILUPBiCGStab:  Solving for T, Initial residual = 0.0328738, Final residual = 0.00018801, No Iterations 1
DICPCG:  Solving for p_rgh, Initial residual = 0.0800885, Final residual = 0.000737928, No Iterations 42
time step continuity errors : sum local = 0.00203451, global = -3.23538e-05, cumulative = 0.00107558
DILUPBiCGStab:  Solving for epsilon, Initial residual = 0.0251345, Final residual = 0.000505295, No Iterations 1
DILUPBiCGStab:  Solving for k, Initial residual = 0.0279889, Final residual = 0.00122761, No Iterations 1
ExecutionTime = 0.31 s  ClockTime = 0 s

Time = 19

DILUPBiCGStab:  Solving for Ux, Initial residual = 0.00861147, Final residual = 7.4542e-05, No Iterations 1
DILUPBiCGStab:  Solving for Uy, Initial residual = 0.0174893, Final residual = 0.00011176, No Iterations 1
DILUPBiCGStab:  Solving for T, Initial residual = 0.0312822, Final residual = 0.000167733, No Iterations 1
DICPCG:  Solving for p_rgh, Initial residual = 0.0736565, Final residual = 0.000733786, No Iterations 40
time step continuity errors : sum local = 0.00203643, global = -0.000265381, cumulative = 0.000810203
DILUPBiCGStab:  Solving for epsilon, Initial residual = 0.0251934, Final residual = 0.000527541, No Iterations 1
DILUPBiCGStab:  Solving for k, Initial residual = 0.0286078, Final residual = 0.00124172, No Iterations 1
ExecutionTime = 0.32 s  ClockTime = 0 s

Time = 20

DILUPBiCGStab:  Solving for Ux, Initial residual = 0.00856174, Final residual = 7.32523e-05, No Iterations 1
DILUPBiCGStab:  Solving for Uy, Initial residual = 0.0171946, Final residual = 0.000113497, No Iterations 1
DILUPBiCGStab:  Solving for T, Initial residual = 0.0298514, Final residual = 0.000167366, No Iterations 1
DICPCG:  Solving for p_rgh, Initial residual = 0.0694264, Final residual = 0.000654562, No Iterations 89
time step continuity errors : sum local = 0.00183754, global = 0.000126525, cumulative = 0.000936728
DILUPBiCGStab:  Solving for epsilon, Initial residual = 0.0250488, Final residual = 0.000552797, No Iterations 1
DILUPBiCGStab:  Solving for k, Initial residual = 0.0292898, Final residual = 0.00125895, No Iterations 1
ExecutionTime = 0.33 s  ClockTime = 0 s

Time = 21

DILUPBiCGStab:  Solving for Ux, Initial residual = 0.0084835, Final residual = 7.19873e-05, No Iterations 1
DILUPBiCGStab:  Solving for Uy, Initial residual = 0.0168828, Final residual = 0.000115079, No Iterations 1
DILUPBiCGStab:  Solving for T, Initial residual = 0.0285522, Final residual = 0.00015835, No Iterations 1
DICPCG:  Solving for p_rgh, Initial residual = 0.0672411, Final residual = 0.000634087, No Iterations 53
time step continuity errors : sum local = 0.00175661, global = -0.000191845, cumulative = 0.000744884
DILUPBiCGStab:  Solving for epsilon, Initial residual = 0.0247524, Final residual = 0.000574899, No Iterations 1
DILUPBiCGStab:  Solving for k, Initial residual = 0.0298147, Final residual = 0.00128188, No Iterations 1
ExecutionTime = 0.35 s  ClockTime = 0 s

Time = 22

DILUPBiCGStab:  Solving for Ux, Initial residual = 0.00839809, Final residual = 7.071e-05, No Iterations 1
DILUPBiCGStab:  Solving for Uy, Initial residual = 0.016514, Final residual = 0.000115104, No Iterations 1
DILUPBiCGStab:  Solving for T, Initial residual = 0.0273426, Final residual = 0.000147085, No Iterations 1
DICPCG:  Solving for p_rgh, Initial residual = 0.0627015, Final residual = 0.000546117, No Iterations 55
time step continuity errors : sum local = 0.00153875, global = -0.000366564, cumulative = 0.00037832
DILUPBiCGStab:  Solving for epsilon, Initial residual = 0.0244761, Final residual = 0.000599382, No Iterations 1
DILUPBiCGStab:  Solving for k, Initial residual = 0.0302271, Final residual = 0.00131784, No Iterations 1
ExecutionTime = 0.36 s  ClockTime = 0 s

Time = 23

DILUPBiCGStab:  Solving for Ux, Initial residual = 0.00831149, Final residual = 6.9227e-05, No Iterations 1
DILUPBiCGStab:  Solving for Uy, Initial residual = 0.0161344, Final residual = 0.000114941, No Iterations 1
DILUPBiCGStab:  Solving for T, Initial residual = 0.026211, Final residual = 0.000131019, No Iterations 1
DICPCG:  Solving for p_rgh, Initial residual = 0.0587066, Final residual = 0.000531914, No Iterations 111
time step continuity errors : sum local = 0.00152557, global = -4.66844e-05, cumulative = 0.000331635
DILUPBiCGStab:  Solving for epsilon, Initial residual = 0.0241115, Final residual = 0.000624539, No Iterations 1
DILUPBiCGStab:  Solving for k, Initial residual = 0.0305084, Final residual = 0.00135453, No Iterations 1
ExecutionTime = 0.37 s  ClockTime = 0 s

Time = 24

DILUPBiCGStab:  Solving for Ux, Initial residual = 0.00822097, Final residual = 6.7724e-05, No Iterations 1
DILUPBiCGStab:  Solving for Uy, Initial residual = 0.015711, Final residual = 0.000113628, No Iterations 1
DILUPBiCGStab:  Solving for T, Initial residual = 0.0252519, Final residual = 0.000138892, No Iterations 1
DICPCG:  Solving for p_rgh, Initial residual = 0.0559068, Final residual = 0.000485374, No Iterations 54
time step continuity errors : sum local = 0.00138738, global = -0.000336918, cumulative = -5.28283e-06
DILUPBiCGStab:  Solving for epsilon, Initial residual = 0.0238041, Final residual = 0.000651073, No Iterations 1
DILUPBiCGStab:  Solving for k, Initial residual = 0.0306468, Final residual = 0.00139319, No Iterations 1
ExecutionTime = 0.38 s  ClockTime = 0 s

Time = 25

DILUPBiCGStab:  Solving for Ux, Initial residual = 0.00816069, Final residual = 6.61675e-05, No Iterations 1
DILUPBiCGStab:  Solving for Uy, Initial residual = 0.0153422, Final residual = 0.000111561, No Iterations 1
DILUPBiCGStab:  Solving for T, Initial residual = 0.0243169, Final residual = 0.000136058, No Iterations 1
DICPCG:  Solving for p_rgh, Initial residual = 0.0516704, Final residual = 0.000464371, No Iterations 117
time step continuity errors : sum local = 0.00135482, global = 1.5361e-05, cumulative = 1.00782e-05
DILUPBiCGStab:  Solving for epsilon, Initial residual = 0.0233433, Final residual = 0.000669719, No Iterations 1
DILUPBiCGStab:  Solving for k, Initial residual = 0.0306103, Final residual = 0.00142326, No Iterations 1
ExecutionTime = 0.39 s  ClockTime = 0 s

Time = 26

DILUPBiCGStab:  Solving for Ux, Initial residual = 0.00809463, Final residual = 6.47866e-05, No Iterations 1
DILUPBiCGStab:  Solving for Uy, Initial residual = 0.0150311, Final residual = 0.000108934, No Iterations 1
DILUPBiCGStab:  Solving for T, Initial residual = 0.0234551, Final residual = 0.000121715, No Iterations 1
DICPCG:  Solving for p_rgh, Initial residual = 0.0500099, Final residual = 0.000495447, No Iterations 54
time step continuity errors : sum local = 0.0014439, global = -0.000340319, cumulative = -0.000330241
DILUPBiCGStab:  Solving for epsilon, Initial residual = 0.0226856, Final residual = 0.000678362, No Iterations 1
DILUPBiCGStab:  Solving for k, Initial residual = 0.0303867, Final residual = 0.00143239, No Iterations 1
ExecutionTime = 0.41 s  ClockTime = 0 s

Time = 27

DILUPBiCGStab:  Solving for Ux, Initial residual = 0.00802784, Final residual = 6.343e-05, No Iterations 1
DILUPBiCGStab:  Solving for Uy, Initial residual = 0.0147103, Final residual = 0.000105916, No Iterations 1
DILUPBiCGStab:  Solving for T, Initial residual = 0.0226118, Final residual = 0.000106487, No Iterations 1
DICPCG:  Solving for p_rgh, Initial residual = 0.0479662, Final residual = 0.00045017, No Iterations 111
time step continuity errors : sum local = 0.00134181, global = -9.11246e-06, cumulative = -0.000339353
DILUPBiCGStab:  Solving for epsilon, Initial residual = 0.0218703, Final residual = 0.00067901, No Iterations 1
DILUPBiCGStab:  Solving for k, Initial residual = 0.0299727, Final residual = 0.00142211, No Iterations 1
ExecutionTime = 0.43 s  ClockTime = 0 s

Time = 28

DILUPBiCGStab:  Solving for Ux, Initial residual = 0.00793676, Final residual = 6.19276e-05, No Iterations 1
DILUPBiCGStab:  Solving for Uy, Initial residual = 0.0143714, Final residual = 0.000102633, No Iterations 1
DILUPBiCGStab:  Solving for T, Initial residual = 0.0219199, Final residual = 0.0001146, No Iterations 1
DICPCG:  Solving for p_rgh, Initial residual = 0.0442331, Final residual = 0.000433532, No Iterations 80
time step continuity errors : sum local = 0.00128348, global = -0.000152934, cumulative = -0.000492287
DILUPBiCGStab:  Solving for epsilon, Initial residual = 0.0211204, Final residual = 0.000672816, No Iterations 1
DILUPBiCGStab:  Solving for k, Initial residual = 0.0293987, Final residual = 0.0014136, No Iterations 1
ExecutionTime = 0.44 s  ClockTime = 0 s

Time = 29

DILUPBiCGStab:  Solving for Ux, Initial residual = 0.00785356, Final residual = 6.05401e-05, No Iterations 1
DILUPBiCGStab:  Solving for Uy, Initial residual = 0.0139936, Final residual = 9.93684e-05, No Iterations 1
DILUPBiCGStab:  Solving for T, Initial residual = 0.0212231, Final residual = 0.000111479, No Iterations 1
DICPCG:  Solving for p_rgh, Initial residual = 0.041219, Final residual = 0.000345586, No Iterations 111
time step continuity errors : sum local = 0.00104235, global = -2.42215e-05, cumulative = -0.000516509
DILUPBiCGStab:  Solving for epsilon, Initial residual = 0.0203877, Final residual = 0.000659712, No Iterations 1
DILUPBiCGStab:  Solving for k, Initial residual = 0.0287478, Final residual = 0.00140012, No Iterations 1
ExecutionTime = 0.46 s  ClockTime = 0 s

Time = 30

DILUPBiCGStab:  Solving for Ux, Initial residual = 0.00777675, Final residual = 5.93051e-05, No Iterations 1
DILUPBiCGStab:  Solving for Uy, Initial residual = 0.0136129, Final residual = 9.62982e-05, No Iterations 1
DILUPBiCGStab:  Solving for T, Initial residual = 0.0205384, Final residual = 9.70301e-05, No Iterations 1
DICPCG:  Solving for p_rgh, Initial residual = 0.0392836, Final residual = 0.00031672, No Iterations 117
time step continuity errors : sum local = 0.000955589, global = 1.1694e-05, cumulative = -0.000504815
DILUPBiCGStab:  Solving for epsilon, Initial residual = 0.0197118, Final residual = 0.000648979, No Iterations 1
DILUPBiCGStab:  Solving for k, Initial residual = 0.0280911, Final residual = 0.00137695, No Iterations 1
ExecutionTime = 0.48 s  ClockTime = 0 s

Time = 31

DILUPBiCGStab:  Solving for Ux, Initial residual = 0.00769813, Final residual = 5.81414e-05, No Iterations 1
DILUPBiCGStab:  Solving for Uy, Initial residual = 0.0132449, Final residual = 9.33936e-05, No Iterations 1
DILUPBiCGStab:  Solving for T, Initial residual = 0.0199584, Final residual = 0.000102418, No Iterations 1
DICPCG:  Solving for p_rgh, Initial residual = 0.0361163, Final residual = 0.000359655, No Iterations 62
time step continuity errors : sum local = 0.00109465, global = -0.000179923, cumulative = -0.000684737
DILUPBiCGStab:  Solving for epsilon, Initial residual = 0.0190187, Final residual = 0.000636251, No Iterations 1
DILUPBiCGStab:  Solving for k, Initial residual = 0.0274444, Final residual = 0.00134854, No Iterations 1
ExecutionTime = 0.5 s  ClockTime = 0 s

Time = 32

DILUPBiCGStab:  Solving for Ux, Initial residual = 0.00761354, Final residual = 5.69383e-05, No Iterations 1
DILUPBiCGStab:  Solving for Uy, Initial residual = 0.0128815, Final residual = 9.05993e-05, No Iterations 1
DILUPBiCGStab:  Solving for T, Initial residual = 0.0194307, Final residual = 0.000100233, No Iterations 1
DICPCG:  Solving for p_rgh, Initial residual = 0.0330646, Final residual = 0.000327412, No Iterations 107
time step continuity errors : sum local = 0.00101327, global = 5.02575e-06, cumulative = -0.000679712
DILUPBiCGStab:  Solving for epsilon, Initial residual = 0.0183502, Final residual = 0.000627732, No Iterations 1
DILUPBiCGStab:  Solving for k, Initial residual = 0.0268161, Final residual = 0.00131967, No Iterations 1
ExecutionTime = 0.51 s  ClockTime = 0 s

Time = 33

DILUPBiCGStab:  Solving for Ux, Initial residual = 0.00752324, Final residual = 5.56477e-05, No Iterations 1
DILUPBiCGStab:  Solving for Uy, Initial residual = 0.0125227, Final residual = 8.788e-05, No Iterations 1
DILUPBiCGStab:  Solving for T, Initial residual = 0.0188965, Final residual = 9.069e-05, No Iterations 1
DICPCG:  Solving for p_rgh, Initial residual = 0.0318493, Final residual = 0.000296928, No Iterations 62
time step continuity errors : sum local = 0.000910543, global = -0.000183165, cumulative = -0.000862876
DILUPBiCGStab:  Solving for epsilon, Initial residual = 0.0177425, Final residual = 0.000620616, No Iterations 1
DILUPBiCGStab:  Solving for k, Initial residual = 0.0261995, Final residual = 0.00129531, No Iterations 1
ExecutionTime = 0.52 s  ClockTime = 0 s

Time = 34

DILUPBiCGStab:  Solving for Ux, Initial residual = 0.00742607, Final residual = 5.43987e-05, No Iterations 1
DILUPBiCGStab:  Solving for Uy, Initial residual = 0.0121988, Final residual = 8.51947e-05, No Iterations 1
DILUPBiCGStab:  Solving for T, Initial residual = 0.0184504, Final residual = 9.19918e-05, No Iterations 1
DICPCG:  Solving for p_rgh, Initial residual = 0.0307753, Final residual = 0.000299508, No Iterations 116
time step continuity errors : sum local = 0.000930448, global = 2.45394e-05, cumulative = -0.000838337
DILUPBiCGStab:  Solving for epsilon, Initial residual = 0.0171755, Final residual = 0.000613604, No Iterations 1
DILUPBiCGStab:  Solving for k, Initial residual = 0.0255995, Final residual = 0.00127465, No Iterations 1
ExecutionTime = 0.53 s  ClockTime = 0 s

Time = 35

DILUPBiCGStab:  Solving for Ux, Initial residual = 0.00733676, Final residual = 5.32448e-05, No Iterations 1
DILUPBiCGStab:  Solving for Uy, Initial residual = 0.0118955, Final residual = 8.26805e-05, No Iterations 1
DILUPBiCGStab:  Solving for T, Initial residual = 0.017986, Final residual = 9.04719e-05, No Iterations 1
DICPCG:  Solving for p_rgh, Initial residual = 0.0297242, Final residual = 0.000286287, No Iterations 51
time step continuity errors : sum local = 0.000887074, global = -9.26346e-05, cumulative = -0.000930971
DILUPBiCGStab:  Solving for epsilon, Initial residual = 0.0166499, Final residual = 0.000606951, No Iterations 1
DILUPBiCGStab:  Solving for k, Initial residual = 0.025038, Final residual = 0.00125448, No Iterations 1
ExecutionTime = 0.54 s  ClockTime = 0 s

Time = 36

DILUPBiCGStab:  Solving for Ux, Initial residual = 0.00724805, Final residual = 5.21186e-05, No Iterations 1
DILUPBiCGStab:  Solving for Uy, Initial residual = 0.0115846, Final residual = 8.01438e-05, No Iterations 1
DILUPBiCGStab:  Solving for T, Initial residual = 0.0175681, Final residual = 8.46506e-05, No Iterations 1
DICPCG:  Solving for p_rgh, Initial residual = 0.0284941, Final residual = 0.000270376, No Iterations 51
time step continuity errors : sum local = 0.000847053, global = -6.86883e-05, cumulative = -0.00099966
DILUPBiCGStab:  Solving for epsilon, Initial residual = 0.016168, Final residual = 0.000600363, No Iterations 1
DILUPBiCGStab:  Solving for k, Initial residual = 0.0244892, Final residual = 0.00123486, No Iterations 1
ExecutionTime = 0.55 s  ClockTime = 0 s

Time = 37

DILUPBiCGStab:  Solving for Ux, Initial residual = 0.00716232, Final residual = 5.09949e-05, No Iterations 1
DILUPBiCGStab:  Solving for Uy, Initial residual = 0.0112904, Final residual = 7.77231e-05, No Iterations 1
DILUPBiCGStab:  Solving for T, Initial residual = 0.0171842, Final residual = 9.62226e-05, No Iterations 1
DICPCG:  Solving for p_rgh, Initial residual = 0.0276889, Final residual = 0.000266004, No Iterations 50
time step continuity errors : sum local = 0.000838674, global = 3.05888e-05, cumulative = -0.000969071
DILUPBiCGStab:  Solving for epsilon, Initial residual = 0.0156998, Final residual = 0.000594757, No Iterations 1
DILUPBiCGStab:  Solving for k, Initial residual = 0.0239797, Final residual = 0.00121409, No Iterations 1
ExecutionTime = 0.56 s  ClockTime = 0 s

Time = 38

DILUPBiCGStab:  Solving for Ux, Initial residual = 0.00707543, Final residual = 4.98617e-05, No Iterations 1
DILUPBiCGStab:  Solving for Uy, Initial residual = 0.0109985, Final residual = 7.5364e-05, No Iterations 1
DILUPBiCGStab:  Solving for T, Initial residual = 0.0167786, Final residual = 8.95551e-05, No Iterations 1
DICPCG:  Solving for p_rgh, Initial residual = 0.0269264, Final residual = 0.000243751, No Iterations 60
time step continuity errors : sum local = 0.000770552, global = 0.000164311, cumulative = -0.00080476
DILUPBiCGStab:  Solving for epsilon, Initial residual = 0.0152304, Final residual = 0.000589387, No Iterations 1
DILUPBiCGStab:  Solving for k, Initial residual = 0.0234921, Final residual = 0.00119681, No Iterations 1
ExecutionTime = 0.57 s  ClockTime = 0 s

Time = 39

DILUPBiCGStab:  Solving for Ux, Initial residual = 0.00699253, Final residual = 4.88204e-05, No Iterations 1
DILUPBiCGStab:  Solving for Uy, Initial residual = 0.0107075, Final residual = 7.31517e-05, No Iterations 1
DILUPBiCGStab:  Solving for T, Initial residual = 0.0164086, Final residual = 8.65157e-05, No Iterations 1
DICPCG:  Solving for p_rgh, Initial residual = 0.0259469, Final residual = 0.000186794, No Iterations 116
time step continuity errors : sum local = 0.000589801, global = 1.83769e-06, cumulative = -0.000802922
DILUPBiCGStab:  Solving for epsilon, Initial residual = 0.0148034, Final residual = 0.000584152, No Iterations 1
DILUPBiCGStab:  Solving for k, Initial residual = 0.0229396, Final residual = 0.00117707, No Iterations 1
ExecutionTime = 0.58 s  ClockTime = 0 s

Time = 40

DILUPBiCGStab:  Solving for Ux, Initial residual = 0.00690172, Final residual = 4.78273e-05, No Iterations 1
DILUPBiCGStab:  Solving for Uy, Initial residual = 0.0104336, Final residual = 7.10826e-05, No Iterations 1
DILUPBiCGStab:  Solving for T, Initial residual = 0.0160583, Final residual = 8.69903e-05, No Iterations 1
DICPCG:  Solving for p_rgh, Initial residual = 0.0248704, Final residual = 0.000238384, No Iterations 90
time step continuity errors : sum local = 0.000757524, global = 8.41594e-05, cumulative = -0.000718763
DILUPBiCGStab:  Solving for epsilon, Initial residual = 0.0143934, Final residual = 0.000579366, No Iterations 1
DILUPBiCGStab:  Solving for k, Initial residual = 0.0224139, Final residual = 0.00115752, No Iterations 1
ExecutionTime = 0.6 s  ClockTime = 0 s

Time = 41

DILUPBiCGStab:  Solving for Ux, Initial residual = 0.00681285, Final residual = 4.69418e-05, No Iterations 1
DILUPBiCGStab:  Solving for Uy, Initial residual = 0.0101634, Final residual = 6.91218e-05, No Iterations 1
DILUPBiCGStab:  Solving for T, Initial residual = 0.0157118, Final residual = 8.85261e-05, No Iterations 1
DICPCG:  Solving for p_rgh, Initial residual = 0.0242042, Final residual = 0.000236787, No Iterations 115
time step continuity errors : sum local = 0.000745428, global = 6.07995e-06, cumulative = -0.000712683
DILUPBiCGStab:  Solving for epsilon, Initial residual = 0.0139928, Final residual = 0.000573717, No Iterations 1
DILUPBiCGStab:  Solving for k, Initial residual = 0.0218739, Final residual = 0.00113859, No Iterations 1
ExecutionTime = 0.61 s  ClockTime = 0 s

Time = 42

DILUPBiCGStab:  Solving for Ux, Initial residual = 0.00671767, Final residual = 4.60611e-05, No Iterations 1
DILUPBiCGStab:  Solving for Uy, Initial residual = 0.0099109, Final residual = 6.72386e-05, No Iterations 1
DILUPBiCGStab:  Solving for T, Initial residual = 0.0153976, Final residual = 8.64033e-05, No Iterations 1
DICPCG:  Solving for p_rgh, Initial residual = 0.023762, Final residual = 0.000237239, No Iterations 87
time step continuity errors : sum local = 0.000745014, global = 9.29121e-05, cumulative = -0.000619771
DILUPBiCGStab:  Solving for epsilon, Initial residual = 0.0135994, Final residual = 0.000566509, No Iterations 1
DILUPBiCGStab:  Solving for k, Initial residual = 0.0213265, Final residual = 0.00111651, No Iterations 1
ExecutionTime = 0.62 s  ClockTime = 0 s

Time = 43

DILUPBiCGStab:  Solving for Ux, Initial residual = 0.00663205, Final residual = 4.52021e-05, No Iterations 1
DILUPBiCGStab:  Solving for Uy, Initial residual = 0.00966762, Final residual = 6.53466e-05, No Iterations 1
DILUPBiCGStab:  Solving for T, Initial residual = 0.0151231, Final residual = 8.48591e-05, No Iterations 1
DICPCG:  Solving for p_rgh, Initial residual = 0.0236427, Final residual = 0.000229464, No Iterations 115
time step continuity errors : sum local = 0.000706697, global = 5.83302e-06, cumulative = -0.000613938
DILUPBiCGStab:  Solving for epsilon, Initial residual = 0.0132249, Final residual = 0.000559499, No Iterations 1
DILUPBiCGStab:  Solving for k, Initial residual = 0.0207899, Final residual = 0.00109551, No Iterations 1
ExecutionTime = 0.63 s  ClockTime = 0 s

Time = 44

DILUPBiCGStab:  Solving for Ux, Initial residual = 0.00654262, Final residual = 4.42137e-05, No Iterations 1
DILUPBiCGStab:  Solving for Uy, Initial residual = 0.00942989, Final residual = 6.35124e-05, No Iterations 1
DILUPBiCGStab:  Solving for T, Initial residual = 0.0148013, Final residual = 8.63295e-05, No Iterations 1
DICPCG:  Solving for p_rgh, Initial residual = 0.0233875, Final residual = 0.000214971, No Iterations 85
time step continuity errors : sum local = 0.000655742, global = 0.000101046, cumulative = -0.000512892
DILUPBiCGStab:  Solving for epsilon, Initial residual = 0.0128531, Final residual = 0.000551581, No Iterations 1
DILUPBiCGStab:  Solving for k, Initial residual = 0.0202445, Final residual = 0.00107247, No Iterations 1
ExecutionTime = 0.64 s  ClockTime = 0 s

Time = 45

DILUPBiCGStab:  Solving for Ux, Initial residual = 0.00646184, Final residual = 4.32937e-05, No Iterations 1
DILUPBiCGStab:  Solving for Uy, Initial residual = 0.00920194, Final residual = 6.17502e-05, No Iterations 1
DILUPBiCGStab:  Solving for T, Initial residual = 0.0145333, Final residual = 8.34165e-05, No Iterations 1
DICPCG:  Solving for p_rgh, Initial residual = 0.0229653, Final residual = 0.000228065, No Iterations 113
time step continuity errors : sum local = 0.000679112, global = -7.03751e-06, cumulative = -0.00051993
DILUPBiCGStab:  Solving for epsilon, Initial residual = 0.0124862, Final residual = 0.00054305, No Iterations 1
DILUPBiCGStab:  Solving for k, Initial residual = 0.0197118, Final residual = 0.00104862, No Iterations 1
ExecutionTime = 0.65 s  ClockTime = 0 s

Time = 46

DILUPBiCGStab:  Solving for Ux, Initial residual = 0.00637595, Final residual = 4.24385e-05, No Iterations 1
DILUPBiCGStab:  Solving for Uy, Initial residual = 0.00898553, Final residual = 6.00477e-05, No Iterations 1
DILUPBiCGStab:  Solving for T, Initial residual = 0.0142933, Final residual = 8.52808e-05, No Iterations 1
DICPCG:  Solving for p_rgh, Initial residual = 0.0227216, Final residual = 0.000227134, No Iterations 52
time step continuity errors : sum local = 0.000666376, global = 0.000210298, cumulative = -0.000309632
DILUPBiCGStab:  Solving for epsilon, Initial residual = 0.0121294, Final residual = 0.0005338, No Iterations 1
DILUPBiCGStab:  Solving for k, Initial residual = 0.0191699, Final residual = 0.00102336, No Iterations 1
ExecutionTime = 0.66 s  ClockTime = 0 s

Time = 47

DILUPBiCGStab:  Solving for Ux, Initial residual = 0.00629688, Final residual = 4.16835e-05, No Iterations 1
DILUPBiCGStab:  Solving for Uy, Initial residual = 0.0087786, Final residual = 5.84351e-05, No Iterations 1
DILUPBiCGStab:  Solving for T, Initial residual = 0.0140665, Final residual = 8.04282e-05, No Iterations 1
DICPCG:  Solving for p_rgh, Initial residual = 0.02281, Final residual = 0.000209993, No Iterations 114
time step continuity errors : sum local = 0.000599066, global = 2.00323e-06, cumulative = -0.000307628
DILUPBiCGStab:  Solving for epsilon, Initial residual = 0.011775, Final residual = 0.000523249, No Iterations 1
DILUPBiCGStab:  Solving for k, Initial residual = 0.0186382, Final residual = 0.000998518, No Iterations 1
ExecutionTime = 0.68 s  ClockTime = 0 s

Time = 48

DILUPBiCGStab:  Solving for Ux, Initial residual = 0.00621442, Final residual = 4.0873e-05, No Iterations 1
DILUPBiCGStab:  Solving for Uy, Initial residual = 0.00858155, Final residual = 5.68602e-05, No Iterations 1
DILUPBiCGStab:  Solving for T, Initial residual = 0.0138363, Final residual = 7.80785e-05, No Iterations 1
DICPCG:  Solving for p_rgh, Initial residual = 0.0229178, Final residual = 0.000219559, No Iterations 51
time step continuity errors : sum local = 0.000617469, global = 0.000151414, cumulative = -0.000156214
DILUPBiCGStab:  Solving for epsilon, Initial residual = 0.0114423, Final residual = 0.00051246, No Iterations 1
DILUPBiCGStab:  Solving for k, Initial residual = 0.0181104, Final residual = 0.000972828, No Iterations 1
ExecutionTime = 0.69 s  ClockTime = 0 s

Time = 49

DILUPBiCGStab:  Solving for Ux, Initial residual = 0.00614164, Final residual = 4.00912e-05, No Iterations 1
DILUPBiCGStab:  Solving for Uy, Initial residual = 0.0083922, Final residual = 5.53599e-05, No Iterations 1
DILUPBiCGStab:  Solving for T, Initial residual = 0.0136063, Final residual = 7.76556e-05, No Iterations 1
DICPCG:  Solving for p_rgh, Initial residual = 0.0228799, Final residual = 0.000207947, No Iterations 110
time step continuity errors : sum local = 0.000568797, global = -4.18346e-06, cumulative = -0.000160398
DILUPBiCGStab:  Solving for epsilon, Initial residual = 0.0111075, Final residual = 0.000501578, No Iterations 1
DILUPBiCGStab:  Solving for k, Initial residual = 0.0175975, Final residual = 0.000947654, No Iterations 1
ExecutionTime = 0.7 s  ClockTime = 0 s

Time = 50

DILUPBiCGStab:  Solving for Ux, Initial residual = 0.00606429, Final residual = 3.92963e-05, No Iterations 1
DILUPBiCGStab:  Solving for Uy, Initial residual = 0.00821132, Final residual = 5.38828e-05, No Iterations 1
DILUPBiCGStab:  Solving for T, Initial residual = 0.0134372, Final residual = 7.52238e-05, No Iterations 1
DICPCG:  Solving for p_rgh, Initial residual = 0.0224914, Final residual = 0.000211541, No Iterations 52
time step continuity errors : sum local = 0.000567724, global = 0.000108154, cumulative = -5.22435e-05
DILUPBiCGStab:  Solving for epsilon, Initial residual = 0.0107805, Final residual = 0.000489307, No Iterations 1
DILUPBiCGStab:  Solving for k, Initial residual = 0.0171008, Final residual = 0.000922651, No Iterations 1
ExecutionTime = 0.71 s  ClockTime = 0 s

Time = 51

DILUPBiCGStab:  Solving for Ux, Initial residual = 0.00600128, Final residual = 3.85646e-05, No Iterations 1
DILUPBiCGStab:  Solving for Uy, Initial residual = 0.00804133, Final residual = 5.25239e-05, No Iterations 1
DILUPBiCGStab:  Solving for T, Initial residual = 0.0132338, Final residual = 7.28306e-05, No Iterations 1
DICPCG:  Solving for p_rgh, Initial residual = 0.0223093, Final residual = 0.000209402, No Iterations 57
time step continuity errors : sum local = 0.000546922, global = 0.000150634, cumulative = 9.8391e-05
DILUPBiCGStab:  Solving for epsilon, Initial residual = 0.0104728, Final residual = 0.000476924, No Iterations 1
DILUPBiCGStab:  Solving for k, Initial residual = 0.0166019, Final residual = 0.000897843, No Iterations 1
ExecutionTime = 0.72 s  ClockTime = 0 s

Time = 52

DILUPBiCGStab:  Solving for Ux, Initial residual = 0.00594902, Final residual = 3.78821e-05, No Iterations 1
DILUPBiCGStab:  Solving for Uy, Initial residual = 0.00787339, Final residual = 5.12608e-05, No Iterations 1
DILUPBiCGStab:  Solving for T, Initial residual = 0.0130245, Final residual = 7.17903e-05, No Iterations 1
DICPCG:  Solving for p_rgh, Initial residual = 0.0229564, Final residual = 0.00020162, No Iterations 93
time step continuity errors : sum local = 0.000513314, global = -4.11238e-05, cumulative = 5.72672e-05
DILUPBiCGStab:  Solving for epsilon, Initial residual = 0.0101779, Final residual = 0.00046526, No Iterations 1
DILUPBiCGStab:  Solving for k, Initial residual = 0.016126, Final residual = 0.000872262, No Iterations 1
ExecutionTime = 0.73 s  ClockTime = 0 s

Time = 53

DILUPBiCGStab:  Solving for Ux, Initial residual = 0.00588804, Final residual = 3.71747e-05, No Iterations 1
DILUPBiCGStab:  Solving for Uy, Initial residual = 0.00771202, Final residual = 5.00549e-05, No Iterations 1
DILUPBiCGStab:  Solving for T, Initial residual = 0.012798, Final residual = 6.95574e-05, No Iterations 1
DICPCG:  Solving for p_rgh, Initial residual = 0.0229381, Final residual = 0.000213074, No Iterations 54
time step continuity errors : sum local = 0.000535512, global = 1.62361e-05, cumulative = 7.35033e-05
DILUPBiCGStab:  Solving for epsilon, Initial residual = 0.00988749, Final residual = 0.00045313, No Iterations 1
DILUPBiCGStab:  Solving for k, Initial residual = 0.0156504, Final residual = 0.000847663, No Iterations 1
ExecutionTime = 0.74 s  ClockTime = 0 s

Time = 54

DILUPBiCGStab:  Solving for Ux, Initial residual = 0.00584845, Final residual = 3.6557e-05, No Iterations 1
DILUPBiCGStab:  Solving for Uy, Initial residual = 0.00756472, Final residual = 4.89179e-05, No Iterations 1
DILUPBiCGStab:  Solving for T, Initial residual = 0.0126073, Final residual = 6.50681e-05, No Iterations 1
DICPCG:  Solving for p_rgh, Initial residual = 0.0226495, Final residual = 0.000214769, No Iterations 53
time step continuity errors : sum local = 0.000526514, global = 9.50203e-06, cumulative = 8.30053e-05
DILUPBiCGStab:  Solving for epsilon, Initial residual = 0.00961695, Final residual = 0.00044094, No Iterations 1
DILUPBiCGStab:  Solving for k, Initial residual = 0.0151946, Final residual = 0.00082279, No Iterations 1
ExecutionTime = 0.75 s  ClockTime = 0 s

Time = 55

DILUPBiCGStab:  Solving for Ux, Initial residual = 0.00581219, Final residual = 3.6027e-05, No Iterations 1
DILUPBiCGStab:  Solving for Uy, Initial residual = 0.00742101, Final residual = 4.7813e-05, No Iterations 1
DILUPBiCGStab:  Solving for T, Initial residual = 0.0124563, Final residual = 6.4052e-05, No Iterations 1
DICPCG:  Solving for p_rgh, Initial residual = 0.0227788, Final residual = 0.000221737, No Iterations 52
time step continuity errors : sum local = 0.000530953, global = 3.589e-05, cumulative = 0.000118895
DILUPBiCGStab:  Solving for epsilon, Initial residual = 0.00935972, Final residual = 0.000429586, No Iterations 1
DILUPBiCGStab:  Solving for k, Initial residual = 0.0147533, Final residual = 0.000798905, No Iterations 1
ExecutionTime = 0.76 s  ClockTime = 0 s

Time = 56

DILUPBiCGStab:  Solving for Ux, Initial residual = 0.0057768, Final residual = 3.55174e-05, No Iterations 1
DILUPBiCGStab:  Solving for Uy, Initial residual = 0.00728148, Final residual = 4.67588e-05, No Iterations 1
DILUPBiCGStab:  Solving for T, Initial residual = 0.0122726, Final residual = 6.8927e-05, No Iterations 1
DICPCG:  Solving for p_rgh, Initial residual = 0.0228688, Final residual = 0.000215238, No Iterations 52
time step continuity errors : sum local = 0.00050421, global = 7.21174e-05, cumulative = 0.000191013
DILUPBiCGStab:  Solving for epsilon, Initial residual = 0.00912145, Final residual = 0.000418748, No Iterations 1
DILUPBiCGStab:  Solving for k, Initial residual = 0.0143254, Final residual = 0.000775603, No Iterations 1
ExecutionTime = 0.77 s  ClockTime = 0 s

Time = 57

DILUPBiCGStab:  Solving for Ux, Initial residual = 0.00574155, Final residual = 3.49865e-05, No Iterations 1
DILUPBiCGStab:  Solving for Uy, Initial residual = 0.00714499, Final residual = 4.57137e-05, No Iterations 1
DILUPBiCGStab:  Solving for T, Initial residual = 0.0120555, Final residual = 5.75619e-05, No Iterations 1
DICPCG:  Solving for p_rgh, Initial residual = 0.0230677, Final residual = 0.000225348, No Iterations 53
time step continuity errors : sum local = 0.000516799, global = 0.000112197, cumulative = 0.000303209
DILUPBiCGStab:  Solving for epsilon, Initial residual = 0.00890445, Final residual = 0.000408572, No Iterations 1
DILUPBiCGStab:  Solving for k, Initial residual = 0.0139143, Final residual = 0.000752661, No Iterations 1
ExecutionTime = 0.78 s  ClockTime = 0 s

Time = 58

DILUPBiCGStab:  Solving for Ux, Initial residual = 0.00570695, Final residual = 3.44388e-05, No Iterations 1
DILUPBiCGStab:  Solving for Uy, Initial residual = 0.0070134, Final residual = 4.47008e-05, No Iterations 1
DILUPBiCGStab:  Solving for T, Initial residual = 0.0119084, Final residual = 5.73086e-05, No Iterations 1
DICPCG:  Solving for p_rgh, Initial residual = 0.0228203, Final residual = 0.000208236, No Iterations 62
time step continuity errors : sum local = 0.000467775, global = 0.000114399, cumulative = 0.000417608
DILUPBiCGStab:  Solving for epsilon, Initial residual = 0.00870609, Final residual = 0.000399619, No Iterations 1
DILUPBiCGStab:  Solving for k, Initial residual = 0.0135119, Final residual = 0.00073115, No Iterations 1
ExecutionTime = 0.8 s  ClockTime = 0 s

Time = 59

DILUPBiCGStab:  Solving for Ux, Initial residual = 0.00567353, Final residual = 3.39035e-05, No Iterations 1
DILUPBiCGStab:  Solving for Uy, Initial residual = 0.00688935, Final residual = 4.37419e-05, No Iterations 1
DILUPBiCGStab:  Solving for T, Initial residual = 0.0117358, Final residual = 5.46526e-05, No Iterations 1
DICPCG:  Solving for p_rgh, Initial residual = 0.0225207, Final residual = 0.000180645, No Iterations 117
time step continuity errors : sum local = 0.00039777, global = 2.97409e-07, cumulative = 0.000417906
DILUPBiCGStab:  Solving for epsilon, Initial residual = 0.00852648, Final residual = 0.000392318, No Iterations 1
DILUPBiCGStab:  Solving for k, Initial residual = 0.0131237, Final residual = 0.000710386, No Iterations 1
ExecutionTime = 0.82 s  ClockTime = 0 s

Time = 60

DILUPBiCGStab:  Solving for Ux, Initial residual = 0.00563016, Final residual = 3.33124e-05, No Iterations 1
DILUPBiCGStab:  Solving for Uy, Initial residual = 0.00677267, Final residual = 4.28789e-05, No Iterations 1
DILUPBiCGStab:  Solving for T, Initial residual = 0.0115672, Final residual = 5.15051e-05, No Iterations 1
DICPCG:  Solving for p_rgh, Initial residual = 0.0224305, Final residual = 0.000224294, No Iterations 53
time step continuity errors : sum local = 0.000488968, global = -7.00238e-05, cumulative = 0.000347882
DILUPBiCGStab:  Solving for epsilon, Initial residual = 0.00836301, Final residual = 0.000384884, No Iterations 1
DILUPBiCGStab:  Solving for k, Initial residual = 0.0127631, Final residual = 0.000689997, No Iterations 1
ExecutionTime = 0.84 s  ClockTime = 0 s

Time = 61

DILUPBiCGStab:  Solving for Ux, Initial residual = 0.00560453, Final residual = 3.28303e-05, No Iterations 1
DILUPBiCGStab:  Solving for Uy, Initial residual = 0.00666164, Final residual = 4.20413e-05, No Iterations 1
DILUPBiCGStab:  Solving for T, Initial residual = 0.0113954, Final residual = 5.49018e-05, No Iterations 1
DICPCG:  Solving for p_rgh, Initial residual = 0.0224033, Final residual = 0.000207365, No Iterations 92
time step continuity errors : sum local = 0.000444037, global = -6.29746e-07, cumulative = 0.000347252
DILUPBiCGStab:  Solving for epsilon, Initial residual = 0.00821005, Final residual = 0.000377375, No Iterations 1
DILUPBiCGStab:  Solving for k, Initial residual = 0.0124085, Final residual = 0.000670755, No Iterations 1
ExecutionTime = 0.85 s  ClockTime = 1 s

Time = 62

DILUPBiCGStab:  Solving for Ux, Initial residual = 0.00559808, Final residual = 3.24981e-05, No Iterations 1
DILUPBiCGStab:  Solving for Uy, Initial residual = 0.00655262, Final residual = 4.12137e-05, No Iterations 1
DILUPBiCGStab:  Solving for T, Initial residual = 0.0112484, Final residual = 5.429e-05, No Iterations 1
DICPCG:  Solving for p_rgh, Initial residual = 0.0223498, Final residual = 0.000190795, No Iterations 53
time step continuity errors : sum local = 0.000396864, global = 3.17896e-06, cumulative = 0.000350431
DILUPBiCGStab:  Solving for epsilon, Initial residual = 0.00804995, Final residual = 0.000368054, No Iterations 1
DILUPBiCGStab:  Solving for k, Initial residual = 0.0120688, Final residual = 0.000651589, No Iterations 1
ExecutionTime = 0.86 s  ClockTime = 1 s

Time = 63

DILUPBiCGStab:  Solving for Ux, Initial residual = 0.00557684, Final residual = 3.2097e-05, No Iterations 1
DILUPBiCGStab:  Solving for Uy, Initial residual = 0.00645055, Final residual = 4.04127e-05, No Iterations 1
DILUPBiCGStab:  Solving for T, Initial residual = 0.0110852, Final residual = 4.87565e-05, No Iterations 1
DICPCG:  Solving for p_rgh, Initial residual = 0.0218686, Final residual = 0.000178952, No Iterations 53
time step continuity errors : sum local = 0.000366322, global = 2.78321e-05, cumulative = 0.000378263
DILUPBiCGStab:  Solving for epsilon, Initial residual = 0.00792543, Final residual = 0.000362215, No Iterations 1
DILUPBiCGStab:  Solving for k, Initial residual = 0.0117584, Final residual = 0.000633576, No Iterations 1
ExecutionTime = 0.87 s  ClockTime = 1 s

Time = 64

DILUPBiCGStab:  Solving for Ux, Initial residual = 0.00555696, Final residual = 3.16785e-05, No Iterations 1
DILUPBiCGStab:  Solving for Uy, Initial residual = 0.00634872, Final residual = 3.96032e-05, No Iterations 1
DILUPBiCGStab:  Solving for T, Initial residual = 0.0109182, Final residual = 4.88074e-05, No Iterations 1
DICPCG:  Solving for p_rgh, Initial residual = 0.0218778, Final residual = 0.0001793, No Iterations 53
time step continuity errors : sum local = 0.000361404, global = 2.19678e-05, cumulative = 0.000400231
DILUPBiCGStab:  Solving for epsilon, Initial residual = 0.00782355, Final residual = 0.000357485, No Iterations 1
DILUPBiCGStab:  Solving for k, Initial residual = 0.011466, Final residual = 0.000616689, No Iterations 1
ExecutionTime = 0.88 s  ClockTime = 1 s

Time = 65

DILUPBiCGStab:  Solving for Ux, Initial residual = 0.00553743, Final residual = 3.12889e-05, No Iterations 1
DILUPBiCGStab:  Solving for Uy, Initial residual = 0.00624839, Final residual = 3.88184e-05, No Iterations 1
DILUPBiCGStab:  Solving for T, Initial residual = 0.0107668, Final residual = 4.45942e-05, No Iterations 1
DICPCG:  Solving for p_rgh, Initial residual = 0.0217854, Final residual = 0.00018964, No Iterations 53
time step continuity errors : sum local = 0.000376671, global = -1.44682e-05, cumulative = 0.000385763
DILUPBiCGStab:  Solving for epsilon, Initial residual = 0.00773444, Final residual = 0.000353653, No Iterations 1
DILUPBiCGStab:  Solving for k, Initial residual = 0.011189, Final residual = 0.000600842, No Iterations 1
ExecutionTime = 0.89 s  ClockTime = 1 s

Time = 66

DILUPBiCGStab:  Solving for Ux, Initial residual = 0.00551748, Final residual = 3.0906e-05, No Iterations 1
DILUPBiCGStab:  Solving for Uy, Initial residual = 0.00615366, Final residual = 3.80921e-05, No Iterations 1
DILUPBiCGStab:  Solving for T, Initial residual = 0.0106086, Final residual = 4.32019e-05, No Iterations 1
DICPCG:  Solving for p_rgh, Initial residual = 0.0215298, Final residual = 0.000174917, No Iterations 54
time step continuity errors : sum local = 0.000342499, global = -8.88202e-05, cumulative = 0.000296943
DILUPBiCGStab:  Solving for epsilon, Initial residual = 0.00764984, Final residual = 0.000350152, No Iterations 1
DILUPBiCGStab:  Solving for k, Initial residual = 0.0109295, Final residual = 0.000585965, No Iterations 1
ExecutionTime = 0.9 s  ClockTime = 1 s

Time = 67

DILUPBiCGStab:  Solving for Ux, Initial residual = 0.00549597, Final residual = 3.05527e-05, No Iterations 1
DILUPBiCGStab:  Solving for Uy, Initial residual = 0.00606444, Final residual = 3.73949e-05, No Iterations 1
DILUPBiCGStab:  Solving for T, Initial residual = 0.0104583, Final residual = 4.42477e-05, No Iterations 1
DICPCG:  Solving for p_rgh, Initial residual = 0.0212079, Final residual = 0.000198725, No Iterations 101
time step continuity errors : sum local = 0.00038373, global = 2.21032e-05, cumulative = 0.000319046
DILUPBiCGStab:  Solving for epsilon, Initial residual = 0.00757804, Final residual = 0.000346992, No Iterations 1
DILUPBiCGStab:  Solving for k, Initial residual = 0.0106906, Final residual = 0.000572347, No Iterations 1
ExecutionTime = 0.91 s  ClockTime = 1 s

Time = 68

DILUPBiCGStab:  Solving for Ux, Initial residual = 0.00548778, Final residual = 3.03267e-05, No Iterations 1
DILUPBiCGStab:  Solving for Uy, Initial residual = 0.00597892, Final residual = 3.67094e-05, No Iterations 1
DILUPBiCGStab:  Solving for T, Initial residual = 0.0103327, Final residual = 5.00284e-05, No Iterations 1
DICPCG:  Solving for p_rgh, Initial residual = 0.021456, Final residual = 0.000188481, No Iterations 54
time step continuity errors : sum local = 0.000354942, global = -9.40864e-06, cumulative = 0.000309637
DILUPBiCGStab:  Solving for epsilon, Initial residual = 0.00751815, Final residual = 0.000344077, No Iterations 1
DILUPBiCGStab:  Solving for k, Initial residual = 0.0104623, Final residual = 0.000559454, No Iterations 1
ExecutionTime = 0.92 s  ClockTime = 1 s

Time = 69

DILUPBiCGStab:  Solving for Ux, Initial residual = 0.00546379, Final residual = 2.99854e-05, No Iterations 1
DILUPBiCGStab:  Solving for Uy, Initial residual = 0.00589468, Final residual = 3.6063e-05, No Iterations 1
DILUPBiCGStab:  Solving for T, Initial residual = 0.0101873, Final residual = 4.52277e-05, No Iterations 1
DICPCG:  Solving for p_rgh, Initial residual = 0.0211459, Final residual = 0.000187419, No Iterations 53
time step continuity errors : sum local = 0.000348626, global = -3.19802e-05, cumulative = 0.000277657
DILUPBiCGStab:  Solving for epsilon, Initial residual = 0.00746156, Final residual = 0.000341208, No Iterations 1
DILUPBiCGStab:  Solving for k, Initial residual = 0.0102489, Final residual = 0.000547329, No Iterations 1
ExecutionTime = 0.93 s  ClockTime = 1 s

Time = 70

DILUPBiCGStab:  Solving for Ux, Initial residual = 0.00544028, Final residual = 2.96684e-05, No Iterations 1
DILUPBiCGStab:  Solving for Uy, Initial residual = 0.00581163, Final residual = 3.54445e-05, No Iterations 1
DILUPBiCGStab:  Solving for T, Initial residual = 0.0100262, Final residual = 4.25775e-05, No Iterations 1
DICPCG:  Solving for p_rgh, Initial residual = 0.0208228, Final residual = 0.000185325, No Iterations 54
time step continuity errors : sum local = 0.000340503, global = -0.0001059, cumulative = 0.000171757
DILUPBiCGStab:  Solving for epsilon, Initial residual = 0.00741418, Final residual = 0.000338719, No Iterations 1
DILUPBiCGStab:  Solving for k, Initial residual = 0.0100449, Final residual = 0.000536137, No Iterations 1
ExecutionTime = 0.94 s  ClockTime = 1 s

Time = 71

DILUPBiCGStab:  Solving for Ux, Initial residual = 0.00541908, Final residual = 2.93594e-05, No Iterations 1
DILUPBiCGStab:  Solving for Uy, Initial residual = 0.00573171, Final residual = 3.48546e-05, No Iterations 1
DILUPBiCGStab:  Solving for T, Initial residual = 0.0098881, Final residual = 4.31029e-05, No Iterations 1
DICPCG:  Solving for p_rgh, Initial residual = 0.0207556, Final residual = 0.000167614, No Iterations 120
time step continuity errors : sum local = 0.000304146, global = 9.18009e-07, cumulative = 0.000172675
DILUPBiCGStab:  Solving for epsilon, Initial residual = 0.00737911, Final residual = 0.000336996, No Iterations 1
DILUPBiCGStab:  Solving for k, Initial residual = 0.00985504, Final residual = 0.000525946, No Iterations 1
ExecutionTime = 0.95 s  ClockTime = 1 s

Time = 72

DILUPBiCGStab:  Solving for Ux, Initial residual = 0.00540937, Final residual = 2.91707e-05, No Iterations 1
DILUPBiCGStab:  Solving for Uy, Initial residual = 0.00565418, Final residual = 3.42727e-05, No Iterations 1
DILUPBiCGStab:  Solving for T, Initial residual = 0.0097305, Final residual = 4.21539e-05, No Iterations 1
DICPCG:  Solving for p_rgh, Initial residual = 0.0207479, Final residual = 0.000155796, No Iterations 54
time step continuity errors : sum local = 0.000275866, global = -1.34208e-05, cumulative = 0.000159254
DILUPBiCGStab:  Solving for epsilon, Initial residual = 0.00733904, Final residual = 0.000334829, No Iterations 1
DILUPBiCGStab:  Solving for k, Initial residual = 0.00967163, Final residual = 0.000516379, No Iterations 1
ExecutionTime = 0.96 s  ClockTime = 1 s

Time = 73

DILUPBiCGStab:  Solving for Ux, Initial residual = 0.00538401, Final residual = 2.8858e-05, No Iterations 1
DILUPBiCGStab:  Solving for Uy, Initial residual = 0.00558176, Final residual = 3.37018e-05, No Iterations 1
DILUPBiCGStab:  Solving for T, Initial residual = 0.00962103, Final residual = 4.33245e-05, No Iterations 1
DICPCG:  Solving for p_rgh, Initial residual = 0.0201863, Final residual = 0.000199548, No Iterations 52
time step continuity errors : sum local = 0.000349607, global = -2.25761e-05, cumulative = 0.000136678
DILUPBiCGStab:  Solving for epsilon, Initial residual = 0.00730838, Final residual = 0.000333802, No Iterations 1
DILUPBiCGStab:  Solving for k, Initial residual = 0.00950494, Final residual = 0.00050758, No Iterations 1
ExecutionTime = 0.97 s  ClockTime = 1 s

Time = 74

DILUPBiCGStab:  Solving for Ux, Initial residual = 0.00535973, Final residual = 2.85753e-05, No Iterations 1
DILUPBiCGStab:  Solving for Uy, Initial residual = 0.00551116, Final residual = 3.31339e-05, No Iterations 1
DILUPBiCGStab:  Solving for T, Initial residual = 0.00950643, Final residual = 4.42264e-05, No Iterations 1
DICPCG:  Solving for p_rgh, Initial residual = 0.0197399, Final residual = 0.000173298, No Iterations 54
time step continuity errors : sum local = 0.000300578, global = -8.93832e-05, cumulative = 4.7295e-05
DILUPBiCGStab:  Solving for epsilon, Initial residual = 0.00727728, Final residual = 0.000332491, No Iterations 1
DILUPBiCGStab:  Solving for k, Initial residual = 0.00934635, Final residual = 0.000500196, No Iterations 1
ExecutionTime = 0.98 s  ClockTime = 1 s

Time = 75

DILUPBiCGStab:  Solving for Ux, Initial residual = 0.00533529, Final residual = 2.83081e-05, No Iterations 1
DILUPBiCGStab:  Solving for Uy, Initial residual = 0.00544318, Final residual = 3.26025e-05, No Iterations 1
DILUPBiCGStab:  Solving for T, Initial residual = 0.00936896, Final residual = 4.65048e-05, No Iterations 1
DICPCG:  Solving for p_rgh, Initial residual = 0.0193998, Final residual = 0.000165944, No Iterations 122
time step continuity errors : sum local = 0.000285041, global = 2.57807e-06, cumulative = 4.98731e-05
DILUPBiCGStab:  Solving for epsilon, Initial residual = 0.00725511, Final residual = 0.000330859, No Iterations 1
DILUPBiCGStab:  Solving for k, Initial residual = 0.00919779, Final residual = 0.000493198, No Iterations 1
ExecutionTime = 1 s  ClockTime = 1 s

Time = 76

DILUPBiCGStab:  Solving for Ux, Initial residual = 0.00532124, Final residual = 2.81574e-05, No Iterations 1
DILUPBiCGStab:  Solving for Uy, Initial residual = 0.00537737, Final residual = 3.21058e-05, No Iterations 1
DILUPBiCGStab:  Solving for T, Initial residual = 0.00921328, Final residual = 4.29222e-05, No Iterations 1
DICPCG:  Solving for p_rgh, Initial residual = 0.01928, Final residual = 0.00018574, No Iterations 54
time step continuity errors : sum local = 0.0003119, global = -3.26195e-05, cumulative = 1.72536e-05
DILUPBiCGStab:  Solving for epsilon, Initial residual = 0.00723868, Final residual = 0.000329249, No Iterations 1
DILUPBiCGStab:  Solving for k, Initial residual = 0.00905422, Final residual = 0.000486767, No Iterations 1
ExecutionTime = 1.02 s  ClockTime = 1 s

Time = 77

DILUPBiCGStab:  Solving for Ux, Initial residual = 0.00529456, Final residual = 2.78908e-05, No Iterations 1
DILUPBiCGStab:  Solving for Uy, Initial residual = 0.0053131, Final residual = 3.16595e-05, No Iterations 1
DILUPBiCGStab:  Solving for T, Initial residual = 0.00911551, Final residual = 4.47406e-05, No Iterations 1
DICPCG:  Solving for p_rgh, Initial residual = 0.0191245, Final residual = 0.000175336, No Iterations 54
time step continuity errors : sum local = 0.000291673, global = -6.45066e-05, cumulative = -4.7253e-05
DILUPBiCGStab:  Solving for epsilon, Initial residual = 0.00722056, Final residual = 0.000327632, No Iterations 1
DILUPBiCGStab:  Solving for k, Initial residual = 0.0089171, Final residual = 0.000480721, No Iterations 1
ExecutionTime = 1.02 s  ClockTime = 1 s

Time = 78

DILUPBiCGStab:  Solving for Ux, Initial residual = 0.00526951, Final residual = 2.76138e-05, No Iterations 1
DILUPBiCGStab:  Solving for Uy, Initial residual = 0.00525005, Final residual = 3.12197e-05, No Iterations 1
DILUPBiCGStab:  Solving for T, Initial residual = 0.00900204, Final residual = 4.40797e-05, No Iterations 1
DICPCG:  Solving for p_rgh, Initial residual = 0.0187547, Final residual = 0.000152701, No Iterations 125
time step continuity errors : sum local = 0.000251548, global = -4.86098e-09, cumulative = -4.72578e-05
DILUPBiCGStab:  Solving for epsilon, Initial residual = 0.00720254, Final residual = 0.000326261, No Iterations 1
DILUPBiCGStab:  Solving for k, Initial residual = 0.00879007, Final residual = 0.000474736, No Iterations 1
ExecutionTime = 1.04 s  ClockTime = 1 s

Time = 79

DILUPBiCGStab:  Solving for Ux, Initial residual = 0.00525284, Final residual = 2.73975e-05, No Iterations 1
DILUPBiCGStab:  Solving for Uy, Initial residual = 0.00518869, Final residual = 3.078e-05, No Iterations 1
DILUPBiCGStab:  Solving for T, Initial residual = 0.00888808, Final residual = 4.2346e-05, No Iterations 1
DICPCG:  Solving for p_rgh, Initial residual = 0.0182773, Final residual = 0.000181815, No Iterations 55
time step continuity errors : sum local = 0.000293683, global = -4.23339e-05, cumulative = -8.95917e-05
DILUPBiCGStab:  Solving for epsilon, Initial residual = 0.00719039, Final residual = 0.000325155, No Iterations 1
DILUPBiCGStab:  Solving for k, Initial residual = 0.00867266, Final residual = 0.00046897, No Iterations 1
ExecutionTime = 1.05 s  ClockTime = 1 s

Time = 80

DILUPBiCGStab:  Solving for Ux, Initial residual = 0.00522618, Final residual = 2.71042e-05, No Iterations 1
DILUPBiCGStab:  Solving for Uy, Initial residual = 0.00513009, Final residual = 3.0346e-05, No Iterations 1
DILUPBiCGStab:  Solving for T, Initial residual = 0.00877314, Final residual = 4.51352e-05, No Iterations 1
DICPCG:  Solving for p_rgh, Initial residual = 0.0182454, Final residual = 0.000180234, No Iterations 58
time step continuity errors : sum local = 0.000288351, global = -9.92933e-05, cumulative = -0.000188885
DILUPBiCGStab:  Solving for epsilon, Initial residual = 0.00717894, Final residual = 0.000323885, No Iterations 1
DILUPBiCGStab:  Solving for k, Initial residual = 0.00855954, Final residual = 0.000463522, No Iterations 1
ExecutionTime = 1.06 s  ClockTime = 1 s

Time = 81

DILUPBiCGStab:  Solving for Ux, Initial residual = 0.00519897, Final residual = 2.68218e-05, No Iterations 1
DILUPBiCGStab:  Solving for Uy, Initial residual = 0.00507612, Final residual = 2.99075e-05, No Iterations 1
DILUPBiCGStab:  Solving for T, Initial residual = 0.00866702, Final residual = 4.17684e-05, No Iterations 1
DICPCG:  Solving for p_rgh, Initial residual = 0.0180613, Final residual = 0.000160393, No Iterations 126
time step continuity errors : sum local = 0.000254153, global = -1.28209e-06, cumulative = -0.000190167
DILUPBiCGStab:  Solving for epsilon, Initial residual = 0.0071677, Final residual = 0.000322675, No Iterations 1
DILUPBiCGStab:  Solving for k, Initial residual = 0.00845127, Final residual = 0.000458181, No Iterations 1
ExecutionTime = 1.07 s  ClockTime = 1 s

Time = 82

DILUPBiCGStab:  Solving for Ux, Initial residual = 0.00518239, Final residual = 2.66536e-05, No Iterations 1
DILUPBiCGStab:  Solving for Uy, Initial residual = 0.00502296, Final residual = 2.949e-05, No Iterations 1
DILUPBiCGStab:  Solving for T, Initial residual = 0.0085771, Final residual = 4.08679e-05, No Iterations 1
DICPCG:  Solving for p_rgh, Initial residual = 0.0180563, Final residual = 0.000176575, No Iterations 55
time step continuity errors : sum local = 0.000273428, global = -3.0305e-05, cumulative = -0.000220472
DILUPBiCGStab:  Solving for epsilon, Initial residual = 0.00715466, Final residual = 0.000321342, No Iterations 1
DILUPBiCGStab:  Solving for k, Initial residual = 0.00834555, Final residual = 0.00045285, No Iterations 1
ExecutionTime = 1.08 s  ClockTime = 1 s

Time = 83

DILUPBiCGStab:  Solving for Ux, Initial residual = 0.00515218, Final residual = 2.63773e-05, No Iterations 1
DILUPBiCGStab:  Solving for Uy, Initial residual = 0.00497183, Final residual = 2.90822e-05, No Iterations 1
DILUPBiCGStab:  Solving for T, Initial residual = 0.00846436, Final residual = 4.11878e-05, No Iterations 1
DICPCG:  Solving for p_rgh, Initial residual = 0.0178456, Final residual = 0.00016655, No Iterations 56
time step continuity errors : sum local = 0.000255739, global = -5.87228e-05, cumulative = -0.000279195
DILUPBiCGStab:  Solving for epsilon, Initial residual = 0.00714123, Final residual = 0.000319988, No Iterations 1
DILUPBiCGStab:  Solving for k, Initial residual = 0.00824263, Final residual = 0.000447344, No Iterations 1
ExecutionTime = 1.09 s  ClockTime = 1 s

Time = 84

DILUPBiCGStab:  Solving for Ux, Initial residual = 0.00512181, Final residual = 2.61016e-05, No Iterations 1
DILUPBiCGStab:  Solving for Uy, Initial residual = 0.00492361, Final residual = 2.86981e-05, No Iterations 1
DILUPBiCGStab:  Solving for T, Initial residual = 0.00837982, Final residual = 4.08657e-05, No Iterations 1
DICPCG:  Solving for p_rgh, Initial residual = 0.0174147, Final residual = 0.000145716, No Iterations 127
time step continuity errors : sum local = 0.000221914, global = -2.32406e-06, cumulative = -0.000281519
DILUPBiCGStab:  Solving for epsilon, Initial residual = 0.00713178, Final residual = 0.000318718, No Iterations 1
DILUPBiCGStab:  Solving for k, Initial residual = 0.00814436, Final residual = 0.000441886, No Iterations 1
ExecutionTime = 1.11 s  ClockTime = 1 s

Time = 85

DILUPBiCGStab:  Solving for Ux, Initial residual = 0.00509969, Final residual = 2.58892e-05, No Iterations 1
DILUPBiCGStab:  Solving for Uy, Initial residual = 0.00487567, Final residual = 2.83095e-05, No Iterations 1
DILUPBiCGStab:  Solving for T, Initial residual = 0.00831038, Final residual = 4.07959e-05, No Iterations 1
DICPCG:  Solving for p_rgh, Initial residual = 0.0171577, Final residual = 0.000154769, No Iterations 57
time step continuity errors : sum local = 0.000231543, global = -5.09005e-05, cumulative = -0.000332419
DILUPBiCGStab:  Solving for epsilon, Initial residual = 0.0071207, Final residual = 0.000316846, No Iterations 1
DILUPBiCGStab:  Solving for k, Initial residual = 0.00804821, Final residual = 0.000436122, No Iterations 1
ExecutionTime = 1.12 s  ClockTime = 1 s

Time = 86

DILUPBiCGStab:  Solving for Ux, Initial residual = 0.00506865, Final residual = 2.56149e-05, No Iterations 1
DILUPBiCGStab:  Solving for Uy, Initial residual = 0.00482979, Final residual = 2.79294e-05, No Iterations 1
DILUPBiCGStab:  Solving for T, Initial residual = 0.00824059, Final residual = 3.91579e-05, No Iterations 1
DICPCG:  Solving for p_rgh, Initial residual = 0.0167933, Final residual = 0.000161847, No Iterations 127
time step continuity errors : sum local = 0.00024027, global = -1.9274e-06, cumulative = -0.000334347
DILUPBiCGStab:  Solving for epsilon, Initial residual = 0.00710584, Final residual = 0.000315083, No Iterations 1
DILUPBiCGStab:  Solving for k, Initial residual = 0.00795316, Final residual = 0.0004302, No Iterations 1
ExecutionTime = 1.13 s  ClockTime = 1 s

Time = 87

DILUPBiCGStab:  Solving for Ux, Initial residual = 0.00504381, Final residual = 2.54122e-05, No Iterations 1
DILUPBiCGStab:  Solving for Uy, Initial residual = 0.00478419, Final residual = 2.75472e-05, No Iterations 1
DILUPBiCGStab:  Solving for T, Initial residual = 0.00817983, Final residual = 3.83599e-05, No Iterations 1
DICPCG:  Solving for p_rgh, Initial residual = 0.0167472, Final residual = 0.000154547, No Iterations 57
time step continuity errors : sum local = 0.000225874, global = -4.99713e-05, cumulative = -0.000384318
DILUPBiCGStab:  Solving for epsilon, Initial residual = 0.00708759, Final residual = 0.000313317, No Iterations 1
DILUPBiCGStab:  Solving for k, Initial residual = 0.00786198, Final residual = 0.000424019, No Iterations 1
ExecutionTime = 1.14 s  ClockTime = 1 s

Time = 88

DILUPBiCGStab:  Solving for Ux, Initial residual = 0.00501113, Final residual = 2.51411e-05, No Iterations 1
DILUPBiCGStab:  Solving for Uy, Initial residual = 0.00474056, Final residual = 2.71959e-05, No Iterations 1
DILUPBiCGStab:  Solving for T, Initial residual = 0.00808023, Final residual = 3.71295e-05, No Iterations 1
DICPCG:  Solving for p_rgh, Initial residual = 0.0163054, Final residual = 0.000127434, No Iterations 128
time step continuity errors : sum local = 0.000184878, global = -5.87118e-07, cumulative = -0.000384905
DILUPBiCGStab:  Solving for epsilon, Initial residual = 0.00706792, Final residual = 0.000311734, No Iterations 1
DILUPBiCGStab:  Solving for k, Initial residual = 0.00777222, Final residual = 0.000417887, No Iterations 1
ExecutionTime = 1.15 s  ClockTime = 1 s

Time = 89

DILUPBiCGStab:  Solving for Ux, Initial residual = 0.00498526, Final residual = 2.49159e-05, No Iterations 1
DILUPBiCGStab:  Solving for Uy, Initial residual = 0.00469821, Final residual = 2.68538e-05, No Iterations 1
DILUPBiCGStab:  Solving for T, Initial residual = 0.0080178, Final residual = 3.70727e-05, No Iterations 1
DICPCG:  Solving for p_rgh, Initial residual = 0.0160907, Final residual = 0.000145953, No Iterations 58
time step continuity errors : sum local = 0.000208387, global = -5.1126e-05, cumulative = -0.000436031
DILUPBiCGStab:  Solving for epsilon, Initial residual = 0.00705015, Final residual = 0.000310257, No Iterations 1
DILUPBiCGStab:  Solving for k, Initial residual = 0.00768482, Final residual = 0.000411647, No Iterations 1
ExecutionTime = 1.16 s  ClockTime = 1 s

Time = 90

DILUPBiCGStab:  Solving for Ux, Initial residual = 0.00495132, Final residual = 2.46399e-05, No Iterations 1
DILUPBiCGStab:  Solving for Uy, Initial residual = 0.00465714, Final residual = 2.65143e-05, No Iterations 1
DILUPBiCGStab:  Solving for T, Initial residual = 0.00794097, Final residual = 3.60615e-05, No Iterations 1
DICPCG:  Solving for p_rgh, Initial residual = 0.0158315, Final residual = 0.000157545, No Iterations 127
time step continuity errors : sum local = 0.000223347, global = 1.00034e-06, cumulative = -0.000435031
DILUPBiCGStab:  Solving for epsilon, Initial residual = 0.00703041, Final residual = 0.000308519, No Iterations 1
DILUPBiCGStab:  Solving for k, Initial residual = 0.00759924, Final residual = 0.000405482, No Iterations 1
ExecutionTime = 1.18 s  ClockTime = 1 s

Time = 91

DILUPBiCGStab:  Solving for Ux, Initial residual = 0.00492437, Final residual = 2.44172e-05, No Iterations 1
DILUPBiCGStab:  Solving for Uy, Initial residual = 0.00461802, Final residual = 2.61799e-05, No Iterations 1
DILUPBiCGStab:  Solving for T, Initial residual = 0.00786479, Final residual = 3.41017e-05, No Iterations 1
DICPCG:  Solving for p_rgh, Initial residual = 0.0155973, Final residual = 0.00015486, No Iterations 58
time step continuity errors : sum local = 0.000216008, global = -5.0676e-05, cumulative = -0.000485707
DILUPBiCGStab:  Solving for epsilon, Initial residual = 0.00700828, Final residual = 0.000306805, No Iterations 1
DILUPBiCGStab:  Solving for k, Initial residual = 0.00751773, Final residual = 0.000399187, No Iterations 1
ExecutionTime = 1.19 s  ClockTime = 1 s

Time = 92

DILUPBiCGStab:  Solving for Ux, Initial residual = 0.00488896, Final residual = 2.41399e-05, No Iterations 1
DILUPBiCGStab:  Solving for Uy, Initial residual = 0.00458392, Final residual = 2.58677e-05, No Iterations 1
DILUPBiCGStab:  Solving for T, Initial residual = 0.00779181, Final residual = 3.3753e-05, No Iterations 1
DICPCG:  Solving for p_rgh, Initial residual = 0.0153147, Final residual = 0.000122506, No Iterations 127
time step continuity errors : sum local = 0.000169686, global = 3.74929e-06, cumulative = -0.000481958
DILUPBiCGStab:  Solving for epsilon, Initial residual = 0.00698357, Final residual = 0.000305139, No Iterations 1
DILUPBiCGStab:  Solving for k, Initial residual = 0.00743645, Final residual = 0.000393341, No Iterations 1
ExecutionTime = 1.2 s  ClockTime = 1 s

Time = 93

DILUPBiCGStab:  Solving for Ux, Initial residual = 0.00486009, Final residual = 2.39109e-05, No Iterations 1
DILUPBiCGStab:  Solving for Uy, Initial residual = 0.00455027, Final residual = 2.55843e-05, No Iterations 1
DILUPBiCGStab:  Solving for T, Initial residual = 0.00776935, Final residual = 3.30063e-05, No Iterations 1
DICPCG:  Solving for p_rgh, Initial residual = 0.0152465, Final residual = 0.000144127, No Iterations 59
time step continuity errors : sum local = 0.000196544, global = -4.89246e-05, cumulative = -0.000530882
DILUPBiCGStab:  Solving for epsilon, Initial residual = 0.00695623, Final residual = 0.000303226, No Iterations 1
DILUPBiCGStab:  Solving for k, Initial residual = 0.00735483, Final residual = 0.000387603, No Iterations 1
ExecutionTime = 1.21 s  ClockTime = 1 s

Time = 94

DILUPBiCGStab:  Solving for Ux, Initial residual = 0.00482349, Final residual = 2.36365e-05, No Iterations 1
DILUPBiCGStab:  Solving for Uy, Initial residual = 0.00451811, Final residual = 2.53163e-05, No Iterations 1
DILUPBiCGStab:  Solving for T, Initial residual = 0.00768594, Final residual = 3.15244e-05, No Iterations 1
DICPCG:  Solving for p_rgh, Initial residual = 0.014968, Final residual = 0.000146381, No Iterations 131
time step continuity errors : sum local = 0.000198289, global = -4.7959e-07, cumulative = -0.000531362
DILUPBiCGStab:  Solving for epsilon, Initial residual = 0.00692657, Final residual = 0.000300967, No Iterations 1
DILUPBiCGStab:  Solving for k, Initial residual = 0.00727254, Final residual = 0.000381889, No Iterations 1
ExecutionTime = 1.22 s  ClockTime = 1 s

Time = 95

DILUPBiCGStab:  Solving for Ux, Initial residual = 0.00479342, Final residual = 2.34019e-05, No Iterations 1
DILUPBiCGStab:  Solving for Uy, Initial residual = 0.00448757, Final residual = 2.50536e-05, No Iterations 1
DILUPBiCGStab:  Solving for T, Initial residual = 0.00764568, Final residual = 3.22734e-05, No Iterations 1
DICPCG:  Solving for p_rgh, Initial residual = 0.0149233, Final residual = 0.000143238, No Iterations 59
time step continuity errors : sum local = 0.000191114, global = -4.61086e-05, cumulative = -0.00057747
DILUPBiCGStab:  Solving for epsilon, Initial residual = 0.00689625, Final residual = 0.000298378, No Iterations 1
DILUPBiCGStab:  Solving for k, Initial residual = 0.00719075, Final residual = 0.000376121, No Iterations 1
ExecutionTime = 1.23 s  ClockTime = 1 s

Time = 96

DILUPBiCGStab:  Solving for Ux, Initial residual = 0.00475539, Final residual = 2.31171e-05, No Iterations 1
DILUPBiCGStab:  Solving for Uy, Initial residual = 0.00445871, Final residual = 2.47932e-05, No Iterations 1
DILUPBiCGStab:  Solving for T, Initial residual = 0.00756422, Final residual = 3.12389e-05, No Iterations 1
DICPCG:  Solving for p_rgh, Initial residual = 0.0146123, Final residual = 0.000125829, No Iterations 133
time step continuity errors : sum local = 0.000166856, global = -1.24215e-07, cumulative = -0.000577595
DILUPBiCGStab:  Solving for epsilon, Initial residual = 0.00686205, Final residual = 0.000295614, No Iterations 1
DILUPBiCGStab:  Solving for k, Initial residual = 0.00711198, Final residual = 0.000370294, No Iterations 1
ExecutionTime = 1.25 s  ClockTime = 1 s

Time = 97

DILUPBiCGStab:  Solving for Ux, Initial residual = 0.00472372, Final residual = 2.28884e-05, No Iterations 1
DILUPBiCGStab:  Solving for Uy, Initial residual = 0.00442996, Final residual = 2.45324e-05, No Iterations 1
DILUPBiCGStab:  Solving for T, Initial residual = 0.0074894, Final residual = 3.08174e-05, No Iterations 1
DICPCG:  Solving for p_rgh, Initial residual = 0.0145337, Final residual = 0.000132778, No Iterations 60
time step continuity errors : sum local = 0.000173425, global = -4.43714e-05, cumulative = -0.000621966
DILUPBiCGStab:  Solving for epsilon, Initial residual = 0.00682465, Final residual = 0.000293078, No Iterations 1
DILUPBiCGStab:  Solving for k, Initial residual = 0.00703366, Final residual = 0.000364286, No Iterations 1
ExecutionTime = 1.26 s  ClockTime = 1 s

[...]
DILUPBiCGStab:  Solving for epsilon, Initial residual = 0.00018859, Final residual = 1.25698e-05, No Iterations 1
DILUPBiCGStab:  Solving for k, Initial residual = 0.00034453, Final residual = 2.21969e-05, No Iterations 1
ExecutionTime = 15.86 s  ClockTime = 16 s

Time = 1060

DILUPBiCGStab:  Solving for Ux, Initial residual = 0.000119476, Final residual = 6.47241e-07, No Iterations 1
DILUPBiCGStab:  Solving for Uy, Initial residual = 5.07556e-05, Final residual = 3.4951e-07, No Iterations 1
DILUPBiCGStab:  Solving for T, Initial residual = 0.000169508, Final residual = 2.23812e-06, No Iterations 1
DICPCG:  Solving for p_rgh, Initial residual = 0.000233498, Final residual = 2.3154e-06, No Iterations 141
time step continuity errors : sum local = 6.54752e-07, global = 1.83008e-09, cumulative = -0.00132602
DILUPBiCGStab:  Solving for epsilon, Initial residual = 0.000187057, Final residual = 1.24732e-05, No Iterations 1
DILUPBiCGStab:  Solving for k, Initial residual = 0.000342432, Final residual = 2.20778e-05, No Iterations 1
ExecutionTime = 15.88 s  ClockTime = 16 s

Time = 1061

DILUPBiCGStab:  Solving for Ux, Initial residual = 0.000118527, Final residual = 6.42715e-07, No Iterations 1
DILUPBiCGStab:  Solving for Uy, Initial residual = 5.0331e-05, Final residual = 3.46871e-07, No Iterations 1
DILUPBiCGStab:  Solving for T, Initial residual = 0.000166039, Final residual = 2.20959e-06, No Iterations 1
DICPCG:  Solving for p_rgh, Initial residual = 0.00023249, Final residual = 2.29296e-06, No Iterations 141
time step continuity errors : sum local = 6.4828e-07, global = 1.59786e-09, cumulative = -0.00132602
DILUPBiCGStab:  Solving for epsilon, Initial residual = 0.000185559, Final residual = 1.23772e-05, No Iterations 1
DILUPBiCGStab:  Solving for k, Initial residual = 0.000340352, Final residual = 2.19561e-05, No Iterations 1
ExecutionTime = 15.89 s  ClockTime = 16 s

Time = 1062

DILUPBiCGStab:  Solving for Ux, Initial residual = 0.000117587, Final residual = 6.38229e-07, No Iterations 1
DILUPBiCGStab:  Solving for Uy, Initial residual = 4.99089e-05, Final residual = 3.44221e-07, No Iterations 1
DILUPBiCGStab:  Solving for T, Initial residual = 0.000163142, Final residual = 2.21429e-06, No Iterations 1
DICPCG:  Solving for p_rgh, Initial residual = 0.000231342, Final residual = 2.28834e-06, No Iterations 141
time step continuity errors : sum local = 6.46846e-07, global = 3.29704e-09, cumulative = -0.00132601
DILUPBiCGStab:  Solving for epsilon, Initial residual = 0.000184052, Final residual = 1.22806e-05, No Iterations 1
DILUPBiCGStab:  Solving for k, Initial residual = 0.000338291, Final residual = 2.18334e-05, No Iterations 1
ExecutionTime = 15.91 s  ClockTime = 16 s

Time = 1063

DILUPBiCGStab:  Solving for Ux, Initial residual = 0.000116649, Final residual = 6.33801e-07, No Iterations 1
DILUPBiCGStab:  Solving for Uy, Initial residual = 4.94953e-05, Final residual = 3.41597e-07, No Iterations 1
DILUPBiCGStab:  Solving for T, Initial residual = 0.000163573, Final residual = 2.17595e-06, No Iterations 1
DICPCG:  Solving for p_rgh, Initial residual = 0.000230049, Final residual = 2.17687e-06, No Iterations 141
time step continuity errors : sum local = 6.15218e-07, global = 2.11439e-09, cumulative = -0.00132601
DILUPBiCGStab:  Solving for epsilon, Initial residual = 0.000182556, Final residual = 1.21842e-05, No Iterations 1
DILUPBiCGStab:  Solving for k, Initial residual = 0.000336328, Final residual = 2.171e-05, No Iterations 1
ExecutionTime = 15.93 s  ClockTime = 16 s

Time = 1064

DILUPBiCGStab:  Solving for Ux, Initial residual = 0.000115736, Final residual = 6.29328e-07, No Iterations 1
DILUPBiCGStab:  Solving for Uy, Initial residual = 4.90864e-05, Final residual = 3.38925e-07, No Iterations 1
DILUPBiCGStab:  Solving for T, Initial residual = 0.000160889, Final residual = 2.24756e-06, No Iterations 1
DICPCG:  Solving for p_rgh, Initial residual = 0.000228708, Final residual = 2.181e-06, No Iterations 141
time step continuity errors : sum local = 6.16263e-07, global = 1.58562e-09, cumulative = -0.00132601
DILUPBiCGStab:  Solving for epsilon, Initial residual = 0.000181047, Final residual = 1.20875e-05, No Iterations 1
DILUPBiCGStab:  Solving for k, Initial residual = 0.000334367, Final residual = 2.15827e-05, No Iterations 1
ExecutionTime = 15.94 s  ClockTime = 16 s

Time = 1065

DILUPBiCGStab:  Solving for Ux, Initial residual = 0.000114838, Final residual = 6.24891e-07, No Iterations 1
DILUPBiCGStab:  Solving for Uy, Initial residual = 4.86779e-05, Final residual = 3.36247e-07, No Iterations 1
DILUPBiCGStab:  Solving for T, Initial residual = 0.0001628, Final residual = 2.18857e-06, No Iterations 1
DICPCG:  Solving for p_rgh, Initial residual = 0.000227341, Final residual = 2.12109e-06, No Iterations 141
time step continuity errors : sum local = 5.99218e-07, global = 1.75811e-09, cumulative = -0.00132601
DILUPBiCGStab:  Solving for epsilon, Initial residual = 0.000179521, Final residual = 1.19901e-05, No Iterations 1
DILUPBiCGStab:  Solving for k, Initial residual = 0.000332383, Final residual = 2.14526e-05, No Iterations 1
ExecutionTime = 15.96 s  ClockTime = 16 s

Time = 1066

DILUPBiCGStab:  Solving for Ux, Initial residual = 0.000113953, Final residual = 6.20485e-07, No Iterations 1
DILUPBiCGStab:  Solving for Uy, Initial residual = 4.82696e-05, Final residual = 3.33613e-07, No Iterations 1
DILUPBiCGStab:  Solving for T, Initial residual = 0.000161385, Final residual = 2.18868e-06, No Iterations 1
DICPCG:  Solving for p_rgh, Initial residual = 0.000225966, Final residual = 2.05471e-06, No Iterations 141
time step continuity errors : sum local = 5.80349e-07, global = 1.6678e-09, cumulative = -0.00132601
DILUPBiCGStab:  Solving for epsilon, Initial residual = 0.000177991, Final residual = 1.18931e-05, No Iterations 1
DILUPBiCGStab:  Solving for k, Initial residual = 0.000330384, Final residual = 2.13209e-05, No Iterations 1
ExecutionTime = 15.98 s  ClockTime = 16 s

Time = 1067

DILUPBiCGStab:  Solving for Ux, Initial residual = 0.000113059, Final residual = 6.16075e-07, No Iterations 1
DILUPBiCGStab:  Solving for Uy, Initial residual = 4.78633e-05, Final residual = 3.31021e-07, No Iterations 1
DILUPBiCGStab:  Solving for T, Initial residual = 0.000160737, Final residual = 2.22492e-06, No Iterations 1
DICPCG:  Solving for p_rgh, Initial residual = 0.000224571, Final residual = 2.00688e-06, No Iterations 141
time step continuity errors : sum local = 5.66725e-07, global = 9.40393e-10, cumulative = -0.00132601
DILUPBiCGStab:  Solving for epsilon, Initial residual = 0.000176448, Final residual = 1.17959e-05, No Iterations 1
DILUPBiCGStab:  Solving for k, Initial residual = 0.000328371, Final residual = 2.11892e-05, No Iterations 1
ExecutionTime = 15.99 s  ClockTime = 16 s

Time = 1068

DILUPBiCGStab:  Solving for Ux, Initial residual = 0.000112166, Final residual = 6.11661e-07, No Iterations 1
DILUPBiCGStab:  Solving for Uy, Initial residual = 4.74567e-05, Final residual = 3.28409e-07, No Iterations 1
DILUPBiCGStab:  Solving for T, Initial residual = 0.000161912, Final residual = 2.22278e-06, No Iterations 1
DICPCG:  Solving for p_rgh, Initial residual = 0.000223216, Final residual = 1.91174e-06, No Iterations 141
time step continuity errors : sum local = 5.39751e-07, global = 1.21061e-09, cumulative = -0.001326
DILUPBiCGStab:  Solving for epsilon, Initial residual = 0.000174916, Final residual = 1.16985e-05, No Iterations 1
DILUPBiCGStab:  Solving for k, Initial residual = 0.000326403, Final residual = 2.10568e-05, No Iterations 1
ExecutionTime = 16.01 s  ClockTime = 16 s

Time = 1069

DILUPBiCGStab:  Solving for Ux, Initial residual = 0.000111278, Final residual = 6.07254e-07, No Iterations 1
DILUPBiCGStab:  Solving for Uy, Initial residual = 4.70484e-05, Final residual = 3.25779e-07, No Iterations 1
DILUPBiCGStab:  Solving for T, Initial residual = 0.000161872, Final residual = 2.19953e-06, No Iterations 1
DICPCG:  Solving for p_rgh, Initial residual = 0.000221541, Final residual = 1.86417e-06, No Iterations 141
time step continuity errors : sum local = 5.26213e-07, global = 1.34078e-09, cumulative = -0.001326
DILUPBiCGStab:  Solving for epsilon, Initial residual = 0.000173411, Final residual = 1.16013e-05, No Iterations 1
DILUPBiCGStab:  Solving for k, Initial residual = 0.000324467, Final residual = 2.09221e-05, No Iterations 1
ExecutionTime = 16.02 s  ClockTime = 16 s

Time = 1070

DILUPBiCGStab:  Solving for Ux, Initial residual = 0.000110401, Final residual = 6.02883e-07, No Iterations 1
DILUPBiCGStab:  Solving for Uy, Initial residual = 4.66402e-05, Final residual = 3.2315e-07, No Iterations 1
DILUPBiCGStab:  Solving for T, Initial residual = 0.000161223, Final residual = 2.18875e-06, No Iterations 1
DICPCG:  Solving for p_rgh, Initial residual = 0.000220075, Final residual = 2.04596e-06, No Iterations 139
time step continuity errors : sum local = 5.7741e-07, global = -2.6259e-09, cumulative = -0.00132601
DILUPBiCGStab:  Solving for epsilon, Initial residual = 0.000171919, Final residual = 1.1504e-05, No Iterations 1
DILUPBiCGStab:  Solving for k, Initial residual = 0.00032253, Final residual = 2.07867e-05, No Iterations 1
ExecutionTime = 16.04 s  ClockTime = 16 s

Time = 1071

DILUPBiCGStab:  Solving for Ux, Initial residual = 0.000109557, Final residual = 5.98535e-07, No Iterations 1
DILUPBiCGStab:  Solving for Uy, Initial residual = 4.62355e-05, Final residual = 3.20515e-07, No Iterations 1
DILUPBiCGStab:  Solving for T, Initial residual = 0.000159145, Final residual = 2.17335e-06, No Iterations 1
DICPCG:  Solving for p_rgh, Initial residual = 0.000219069, Final residual = 2.11635e-06, No Iterations 138
time step continuity errors : sum local = 5.97156e-07, global = -1.39138e-09, cumulative = -0.00132601
DILUPBiCGStab:  Solving for epsilon, Initial residual = 0.000170412, Final residual = 1.14062e-05, No Iterations 1
DILUPBiCGStab:  Solving for k, Initial residual = 0.000320592, Final residual = 2.06498e-05, No Iterations 1
ExecutionTime = 16.06 s  ClockTime = 16 s

Time = 1072

DILUPBiCGStab:  Solving for Ux, Initial residual = 0.000108722, Final residual = 5.94256e-07, No Iterations 1
DILUPBiCGStab:  Solving for Uy, Initial residual = 4.58391e-05, Final residual = 3.17895e-07, No Iterations 1
DILUPBiCGStab:  Solving for T, Initial residual = 0.000158901, Final residual = 2.18289e-06, No Iterations 1
DICPCG:  Solving for p_rgh, Initial residual = 0.000217971, Final residual = 2.09571e-06, No Iterations 137
time step continuity errors : sum local = 5.9121e-07, global = 1.60024e-09, cumulative = -0.00132601
DILUPBiCGStab:  Solving for epsilon, Initial residual = 0.000168894, Final residual = 1.13082e-05, No Iterations 1
DILUPBiCGStab:  Solving for k, Initial residual = 0.00031865, Final residual = 2.05099e-05, No Iterations 1
ExecutionTime = 16.07 s  ClockTime = 16 s

Time = 1073

DILUPBiCGStab:  Solving for Ux, Initial residual = 0.000107885, Final residual = 5.89994e-07, No Iterations 1
DILUPBiCGStab:  Solving for Uy, Initial residual = 4.54522e-05, Final residual = 3.15284e-07, No Iterations 1
DILUPBiCGStab:  Solving for T, Initial residual = 0.000161309, Final residual = 2.22396e-06, No Iterations 1
DICPCG:  Solving for p_rgh, Initial residual = 0.000216527, Final residual = 2.13168e-06, No Iterations 135
time step continuity errors : sum local = 6.01236e-07, global = 8.92729e-09, cumulative = -0.001326
DILUPBiCGStab:  Solving for epsilon, Initial residual = 0.000167363, Final residual = 1.12094e-05, No Iterations 1
DILUPBiCGStab:  Solving for k, Initial residual = 0.000316702, Final residual = 2.03676e-05, No Iterations 1
ExecutionTime = 16.09 s  ClockTime = 16 s

Time = 1074

DILUPBiCGStab:  Solving for Ux, Initial residual = 0.000107044, Final residual = 5.8575e-07, No Iterations 1
DILUPBiCGStab:  Solving for Uy, Initial residual = 4.50673e-05, Final residual = 3.12682e-07, No Iterations 1
DILUPBiCGStab:  Solving for T, Initial residual = 0.000161219, Final residual = 2.21589e-06, No Iterations 1
DICPCG:  Solving for p_rgh, Initial residual = 0.000215588, Final residual = 2.04249e-06, No Iterations 135
time step continuity errors : sum local = 5.75961e-07, global = 8.47474e-09, cumulative = -0.00132599
DILUPBiCGStab:  Solving for epsilon, Initial residual = 0.00016584, Final residual = 1.11108e-05, No Iterations 1
DILUPBiCGStab:  Solving for k, Initial residual = 0.000314809, Final residual = 2.02237e-05, No Iterations 1
ExecutionTime = 16.1 s  ClockTime = 16 s

Time = 1075

DILUPBiCGStab:  Solving for Ux, Initial residual = 0.000106209, Final residual = 5.81513e-07, No Iterations 1
DILUPBiCGStab:  Solving for Uy, Initial residual = 4.46792e-05, Final residual = 3.10122e-07, No Iterations 1
DILUPBiCGStab:  Solving for T, Initial residual = 0.000159893, Final residual = 2.10874e-06, No Iterations 1
DICPCG:  Solving for p_rgh, Initial residual = 0.000214193, Final residual = 2.13764e-06, No Iterations 135
time step continuity errors : sum local = 6.0267e-07, global = 8.70914e-09, cumulative = -0.00132598
DILUPBiCGStab:  Solving for epsilon, Initial residual = 0.000164323, Final residual = 1.10122e-05, No Iterations 1
DILUPBiCGStab:  Solving for k, Initial residual = 0.000312928, Final residual = 2.0078e-05, No Iterations 1
ExecutionTime = 16.12 s  ClockTime = 16 s

Time = 1076

DILUPBiCGStab:  Solving for Ux, Initial residual = 0.000105386, Final residual = 5.77286e-07, No Iterations 1
DILUPBiCGStab:  Solving for Uy, Initial residual = 4.42864e-05, Final residual = 3.07549e-07, No Iterations 1
DILUPBiCGStab:  Solving for T, Initial residual = 0.000157044, Final residual = 2.21546e-06, No Iterations 1
DICPCG:  Solving for p_rgh, Initial residual = 0.000212713, Final residual = 1.99187e-06, No Iterations 135
time step continuity errors : sum local = 5.61455e-07, global = 8.13576e-09, cumulative = -0.00132597
DILUPBiCGStab:  Solving for epsilon, Initial residual = 0.000162799, Final residual = 1.09139e-05, No Iterations 1
DILUPBiCGStab:  Solving for k, Initial residual = 0.00031104, Final residual = 1.99317e-05, No Iterations 1
ExecutionTime = 16.14 s  ClockTime = 16 s

Time = 1077

DILUPBiCGStab:  Solving for Ux, Initial residual = 0.000104579, Final residual = 5.73023e-07, No Iterations 1
DILUPBiCGStab:  Solving for Uy, Initial residual = 4.3896e-05, Final residual = 3.04991e-07, No Iterations 1
DILUPBiCGStab:  Solving for T, Initial residual = 0.000160233, Final residual = 2.12832e-06, No Iterations 1
DICPCG:  Solving for p_rgh, Initial residual = 0.000211179, Final residual = 1.75767e-06, No Iterations 135
time step continuity errors : sum local = 4.95337e-07, global = 5.49692e-09, cumulative = -0.00132597
DILUPBiCGStab:  Solving for epsilon, Initial residual = 0.00016126, Final residual = 1.08158e-05, No Iterations 1
DILUPBiCGStab:  Solving for k, Initial residual = 0.000309124, Final residual = 1.97848e-05, No Iterations 1
ExecutionTime = 16.16 s  ClockTime = 16 s

Time = 1078

DILUPBiCGStab:  Solving for Ux, Initial residual = 0.000103795, Final residual = 5.68797e-07, No Iterations 1
DILUPBiCGStab:  Solving for Uy, Initial residual = 4.35145e-05, Final residual = 3.02441e-07, No Iterations 1
DILUPBiCGStab:  Solving for T, Initial residual = 0.000158192, Final residual = 2.25226e-06, No Iterations 1
DICPCG:  Solving for p_rgh, Initial residual = 0.000209752, Final residual = 1.8656e-06, No Iterations 135
time step continuity errors : sum local = 5.25645e-07, global = 4.57248e-09, cumulative = -0.00132596
DILUPBiCGStab:  Solving for epsilon, Initial residual = 0.000159731, Final residual = 1.07176e-05, No Iterations 1
DILUPBiCGStab:  Solving for k, Initial residual = 0.000307209, Final residual = 1.96376e-05, No Iterations 1
ExecutionTime = 16.17 s  ClockTime = 16 s

Time = 1079

DILUPBiCGStab:  Solving for Ux, Initial residual = 0.000103015, Final residual = 5.64631e-07, No Iterations 1
DILUPBiCGStab:  Solving for Uy, Initial residual = 4.31378e-05, Final residual = 2.99896e-07, No Iterations 1
DILUPBiCGStab:  Solving for T, Initial residual = 0.000160824, Final residual = 2.25286e-06, No Iterations 1
DICPCG:  Solving for p_rgh, Initial residual = 0.000208626, Final residual = 1.86385e-06, No Iterations 135
time step continuity errors : sum local = 5.25044e-07, global = 3.3104e-09, cumulative = -0.00132596
DILUPBiCGStab:  Solving for epsilon, Initial residual = 0.000158211, Final residual = 1.06195e-05, No Iterations 1
DILUPBiCGStab:  Solving for k, Initial residual = 0.000305321, Final residual = 1.94906e-05, No Iterations 1
ExecutionTime = 16.19 s  ClockTime = 16 s

Time = 1080

DILUPBiCGStab:  Solving for Ux, Initial residual = 0.000102234, Final residual = 5.60516e-07, No Iterations 1
DILUPBiCGStab:  Solving for Uy, Initial residual = 4.27613e-05, Final residual = 2.97334e-07, No Iterations 1
DILUPBiCGStab:  Solving for T, Initial residual = 0.000159414, Final residual = 2.27092e-06, No Iterations 1
DICPCG:  Solving for p_rgh, Initial residual = 0.000207347, Final residual = 1.9175e-06, No Iterations 135
time step continuity errors : sum local = 5.40043e-07, global = 1.3673e-09, cumulative = -0.00132596
DILUPBiCGStab:  Solving for epsilon, Initial residual = 0.000156703, Final residual = 1.0521e-05, No Iterations 1
DILUPBiCGStab:  Solving for k, Initial residual = 0.000303473, Final residual = 1.93421e-05, No Iterations 1
ExecutionTime = 16.2 s  ClockTime = 16 s

Time = 1081

DILUPBiCGStab:  Solving for Ux, Initial residual = 0.000101458, Final residual = 5.56426e-07, No Iterations 1
DILUPBiCGStab:  Solving for Uy, Initial residual = 4.23979e-05, Final residual = 2.94744e-07, No Iterations 1
DILUPBiCGStab:  Solving for T, Initial residual = 0.000163599, Final residual = 2.27313e-06, No Iterations 1
DICPCG:  Solving for p_rgh, Initial residual = 0.000206143, Final residual = 2.01805e-06, No Iterations 135
time step continuity errors : sum local = 5.68245e-07, global = 2.5249e-10, cumulative = -0.00132596
DILUPBiCGStab:  Solving for epsilon, Initial residual = 0.000155194, Final residual = 1.04217e-05, No Iterations 1
DILUPBiCGStab:  Solving for k, Initial residual = 0.00030161, Final residual = 1.91915e-05, No Iterations 1
ExecutionTime = 16.22 s  ClockTime = 16 s

Time = 1082

DILUPBiCGStab:  Solving for Ux, Initial residual = 0.000100689, Final residual = 5.52374e-07, No Iterations 1
DILUPBiCGStab:  Solving for Uy, Initial residual = 4.20347e-05, Final residual = 2.9221e-07, No Iterations 1
DILUPBiCGStab:  Solving for T, Initial residual = 0.000161842, Final residual = 2.25713e-06, No Iterations 1
DICPCG:  Solving for p_rgh, Initial residual = 0.000204871, Final residual = 1.93436e-06, No Iterations 136
time step continuity errors : sum local = 5.44567e-07, global = -3.7957e-09, cumulative = -0.00132596
DILUPBiCGStab:  Solving for epsilon, Initial residual = 0.000153673, Final residual = 1.03223e-05, No Iterations 1
DILUPBiCGStab:  Solving for k, Initial residual = 0.000299734, Final residual = 1.90394e-05, No Iterations 1
ExecutionTime = 16.23 s  ClockTime = 16 s

Time = 1083

DILUPBiCGStab:  Solving for Ux, Initial residual = 9.99298e-05, Final residual = 5.48311e-07, No Iterations 1
DILUPBiCGStab:  Solving for Uy, Initial residual = 4.16754e-05, Final residual = 2.89773e-07, No Iterations 1
DILUPBiCGStab:  Solving for T, Initial residual = 0.000160326, Final residual = 2.13326e-06, No Iterations 1
DICPCG:  Solving for p_rgh, Initial residual = 0.000203513, Final residual = 2.01625e-06, No Iterations 136
time step continuity errors : sum local = 5.675e-07, global = -4.3537e-09, cumulative = -0.00132596
DILUPBiCGStab:  Solving for epsilon, Initial residual = 0.000152142, Final residual = 1.02229e-05, No Iterations 1
DILUPBiCGStab:  Solving for k, Initial residual = 0.000297834, Final residual = 1.88873e-05, No Iterations 1
ExecutionTime = 16.25 s  ClockTime = 16 s


SIMPLE solution converged in 1083 iterations

End

